* NGSPICE file created from buffer.ext - technology: sky130A

.subckt sky130_fd_pr__nfet_01v8_CL66SD a_1003_n100# a_803_n188# a_n2035_n188# a_n2711_n274#
+ a_n29_n100# a_487_n100# a_1835_n188# a_2293_n100# a_n229_n188# a_n1835_n100# a_287_n188#
+ a_n1003_n188# a_2093_n188# a_n803_n100# a_1519_n100# a_n2093_n100# a_1261_n100#
+ a_1319_n188# a_n2293_n188# a_n1319_n100# a_1061_n188# a_n287_n100# a_n1061_n100#
+ a_n1519_n188# a_745_n100# a_n487_n188# a_n1261_n188# a_2551_n100# a_545_n188# a_2351_n188#
+ a_1777_n100# a_n2609_n100# a_n2351_n100# a_1577_n188# a_229_n100# a_n1577_n100#
+ a_n2551_n188# a_2035_n100# a_n545_n100# a_n1777_n188# a_29_n188# a_n745_n188#
X0 a_n287_n100# a_n487_n188# a_n545_n100# a_n2711_n274# sky130_fd_pr__nfet_01v8 ad=2.9e+11p pd=2.58e+06u as=2.9e+11p ps=2.58e+06u w=1e+06u l=1e+06u
X1 a_n2351_n100# a_n2551_n188# a_n2609_n100# a_n2711_n274# sky130_fd_pr__nfet_01v8 ad=2.9e+11p pd=2.58e+06u as=2.9e+11p ps=2.58e+06u w=1e+06u l=1e+06u
X2 a_1777_n100# a_1577_n188# a_1519_n100# a_n2711_n274# sky130_fd_pr__nfet_01v8 ad=2.9e+11p pd=2.58e+06u as=2.9e+11p ps=2.58e+06u w=1e+06u l=1e+06u
X3 a_2293_n100# a_2093_n188# a_2035_n100# a_n2711_n274# sky130_fd_pr__nfet_01v8 ad=2.9e+11p pd=2.58e+06u as=2.9e+11p ps=2.58e+06u w=1e+06u l=1e+06u
X4 a_1003_n100# a_803_n188# a_745_n100# a_n2711_n274# sky130_fd_pr__nfet_01v8 ad=2.9e+11p pd=2.58e+06u as=2.9e+11p ps=2.58e+06u w=1e+06u l=1e+06u
X5 a_n1577_n100# a_n1777_n188# a_n1835_n100# a_n2711_n274# sky130_fd_pr__nfet_01v8 ad=2.9e+11p pd=2.58e+06u as=2.9e+11p ps=2.58e+06u w=1e+06u l=1e+06u
X6 a_n2093_n100# a_n2293_n188# a_n2351_n100# a_n2711_n274# sky130_fd_pr__nfet_01v8 ad=2.9e+11p pd=2.58e+06u as=0p ps=0u w=1e+06u l=1e+06u
X7 a_n803_n100# a_n1003_n188# a_n1061_n100# a_n2711_n274# sky130_fd_pr__nfet_01v8 ad=2.9e+11p pd=2.58e+06u as=2.9e+11p ps=2.58e+06u w=1e+06u l=1e+06u
X8 a_745_n100# a_545_n188# a_487_n100# a_n2711_n274# sky130_fd_pr__nfet_01v8 ad=0p pd=0u as=2.9e+11p ps=2.58e+06u w=1e+06u l=1e+06u
X9 a_n29_n100# a_n229_n188# a_n287_n100# a_n2711_n274# sky130_fd_pr__nfet_01v8 ad=2.9e+11p pd=2.58e+06u as=0p ps=0u w=1e+06u l=1e+06u
X10 a_229_n100# a_29_n188# a_n29_n100# a_n2711_n274# sky130_fd_pr__nfet_01v8 ad=2.9e+11p pd=2.58e+06u as=0p ps=0u w=1e+06u l=1e+06u
X11 a_1519_n100# a_1319_n188# a_1261_n100# a_n2711_n274# sky130_fd_pr__nfet_01v8 ad=0p pd=0u as=2.9e+11p ps=2.58e+06u w=1e+06u l=1e+06u
X12 a_487_n100# a_287_n188# a_229_n100# a_n2711_n274# sky130_fd_pr__nfet_01v8 ad=0p pd=0u as=0p ps=0u w=1e+06u l=1e+06u
X13 a_n1319_n100# a_n1519_n188# a_n1577_n100# a_n2711_n274# sky130_fd_pr__nfet_01v8 ad=2.9e+11p pd=2.58e+06u as=0p ps=0u w=1e+06u l=1e+06u
X14 a_n545_n100# a_n745_n188# a_n803_n100# a_n2711_n274# sky130_fd_pr__nfet_01v8 ad=0p pd=0u as=0p ps=0u w=1e+06u l=1e+06u
X15 a_n1835_n100# a_n2035_n188# a_n2093_n100# a_n2711_n274# sky130_fd_pr__nfet_01v8 ad=0p pd=0u as=0p ps=0u w=1e+06u l=1e+06u
X16 a_1261_n100# a_1061_n188# a_1003_n100# a_n2711_n274# sky130_fd_pr__nfet_01v8 ad=0p pd=0u as=0p ps=0u w=1e+06u l=1e+06u
X17 a_2035_n100# a_1835_n188# a_1777_n100# a_n2711_n274# sky130_fd_pr__nfet_01v8 ad=0p pd=0u as=0p ps=0u w=1e+06u l=1e+06u
X18 a_n1061_n100# a_n1261_n188# a_n1319_n100# a_n2711_n274# sky130_fd_pr__nfet_01v8 ad=0p pd=0u as=0p ps=0u w=1e+06u l=1e+06u
X19 a_2551_n100# a_2351_n188# a_2293_n100# a_n2711_n274# sky130_fd_pr__nfet_01v8 ad=2.9e+11p pd=2.58e+06u as=0p ps=0u w=1e+06u l=1e+06u
C0 a_n1261_n188# a_29_n188# 0.00fF
C1 a_n803_n100# a_n1577_n100# 0.00fF
C2 a_n803_n100# a_229_n100# 0.00fF
C3 a_487_n100# a_1061_n188# 0.00fF
C4 a_2093_n188# a_1261_n100# 0.00fF
C5 a_2551_n100# a_1519_n100# 0.00fF
C6 a_1003_n100# a_229_n100# 0.00fF
C7 a_n487_n188# a_n29_n100# 0.00fF
C8 a_n803_n100# a_n229_n188# 0.00fF
C9 a_29_n188# a_n1061_n100# 0.00fF
C10 a_1577_n188# a_287_n188# 0.00fF
C11 a_n745_n188# a_n803_n100# 0.00fF
C12 a_n487_n188# a_n287_n100# 0.00fF
C13 a_1003_n100# a_n229_n188# 0.00fF
C14 a_487_n100# a_n487_n188# 0.00fF
C15 a_1261_n100# a_n29_n100# 0.00fF
C16 a_803_n188# a_29_n188# 0.00fF
C17 a_1003_n100# a_745_n100# 0.06fF
C18 a_n2035_n188# a_n2293_n188# 0.10fF
C19 a_2351_n188# a_2551_n100# 0.00fF
C20 a_n1577_n100# a_n2093_n100# 0.00fF
C21 a_487_n100# a_1261_n100# 0.00fF
C22 a_n1319_n100# a_n2351_n100# 0.00fF
C23 a_n287_n100# a_n29_n100# 0.06fF
C24 a_487_n100# a_n29_n100# 0.00fF
C25 a_n2093_n100# a_n2551_n188# 0.00fF
C26 a_1777_n100# a_1319_n188# 0.00fF
C27 a_1319_n188# a_2035_n100# 0.00fF
C28 a_487_n100# a_n287_n100# 0.00fF
C29 a_n1319_n100# a_n545_n100# 0.00fF
C30 a_n487_n188# a_n1003_n188# 0.00fF
C31 a_1835_n188# a_545_n188# 0.00fF
C32 a_n1777_n188# a_n1003_n188# 0.00fF
C33 a_1319_n188# a_1519_n100# 0.00fF
C34 a_n803_n100# a_29_n188# 0.00fF
C35 a_545_n188# a_1577_n188# 0.00fF
C36 a_1003_n100# a_29_n188# 0.00fF
C37 a_n2609_n100# a_n1519_n188# 0.00fF
C38 a_n2035_n188# a_n2351_n100# 0.00fF
C39 a_n2293_n188# a_n2351_n100# 0.00fF
C40 a_n1003_n188# a_n29_n100# 0.00fF
C41 a_n1835_n100# a_n1777_n188# 0.00fF
C42 a_545_n188# a_287_n188# 0.10fF
C43 a_n1577_n100# a_n1319_n100# 0.06fF
C44 a_n287_n100# a_n1003_n188# 0.00fF
C45 a_803_n188# a_1319_n188# 0.00fF
C46 a_2351_n188# a_1319_n188# 0.00fF
C47 a_n1319_n100# a_n2551_n188# 0.00fF
C48 a_287_n188# a_n545_n100# 0.00fF
C49 a_2035_n100# a_2293_n100# 0.06fF
C50 a_1777_n100# a_2293_n100# 0.00fF
C51 a_n1319_n100# a_n229_n188# 0.00fF
C52 a_n745_n188# a_n1319_n100# 0.00fF
C53 a_1519_n100# a_2293_n100# 0.00fF
C54 a_1835_n188# a_745_n100# 0.00fF
C55 a_287_n188# a_229_n100# 0.00fF
C56 a_n2035_n188# a_n1577_n100# 0.00fF
C57 a_n1577_n100# a_n2293_n188# 0.00fF
C58 a_1003_n100# a_1319_n188# 0.00fF
C59 a_1577_n188# a_745_n100# 0.00fF
C60 a_n2035_n188# a_n2551_n188# 0.00fF
C61 a_n2551_n188# a_n2293_n188# 0.10fF
C62 a_287_n188# a_n229_n188# 0.00fF
C63 a_2351_n188# a_2293_n100# 0.00fF
C64 a_n745_n188# a_287_n188# 0.00fF
C65 a_n2035_n188# a_n745_n188# 0.00fF
C66 a_745_n100# a_287_n188# 0.00fF
C67 a_n1835_n100# a_n1003_n188# 0.00fF
C68 a_1777_n100# a_1061_n188# 0.00fF
C69 a_1061_n188# a_2035_n100# 0.00fF
C70 a_545_n188# a_n545_n100# 0.00fF
C71 a_1061_n188# a_1519_n100# 0.00fF
C72 a_n2093_n100# a_n2609_n100# 0.00fF
C73 a_2093_n188# a_2035_n100# 0.00fF
C74 a_1777_n100# a_2093_n188# 0.00fF
C75 a_2551_n100# a_1835_n188# 0.00fF
C76 a_n1577_n100# a_n2351_n100# 0.00fF
C77 a_n1261_n188# a_n487_n188# 0.00fF
C78 a_1777_n100# a_1261_n100# 0.00fF
C79 a_2035_n100# a_1261_n100# 0.00fF
C80 a_545_n188# a_229_n100# 0.00fF
C81 a_n1261_n188# a_n1777_n188# 0.00fF
C82 a_2551_n100# a_1577_n188# 0.00fF
C83 a_n2551_n188# a_n2351_n100# 0.00fF
C84 a_1003_n100# a_2293_n100# 0.00fF
C85 a_2093_n188# a_1519_n100# 0.00fF
C86 a_n487_n188# a_n1519_n188# 0.00fF
C87 a_803_n188# a_1061_n188# 0.10fF
C88 a_n1777_n188# a_n1519_n188# 0.10fF
C89 a_29_n188# a_287_n188# 0.10fF
C90 a_2351_n188# a_1061_n188# 0.00fF
C91 a_n545_n100# a_229_n100# 0.00fF
C92 a_n1577_n100# a_n545_n100# 0.00fF
C93 a_1261_n100# a_1519_n100# 0.06fF
C94 a_n487_n188# a_n1061_n100# 0.00fF
C95 a_545_n188# a_n229_n188# 0.00fF
C96 a_n745_n188# a_545_n188# 0.00fF
C97 a_n1777_n188# a_n1061_n100# 0.00fF
C98 a_487_n100# a_1777_n100# 0.00fF
C99 a_n1261_n188# a_n29_n100# 0.00fF
C100 a_545_n188# a_745_n100# 0.00fF
C101 a_803_n188# a_n487_n188# 0.00fF
C102 a_n545_n100# a_n229_n188# 0.00fF
C103 a_n1261_n188# a_n287_n100# 0.00fF
C104 a_n745_n188# a_n545_n100# 0.00fF
C105 a_803_n188# a_2093_n188# 0.00fF
C106 a_2351_n188# a_2093_n188# 0.10fF
C107 a_745_n100# a_n545_n100# 0.00fF
C108 a_487_n100# a_1519_n100# 0.00fF
C109 a_n1319_n100# a_n2609_n100# 0.00fF
C110 a_n287_n100# a_n1519_n188# 0.00fF
C111 a_n1061_n100# a_n29_n100# 0.00fF
C112 a_803_n188# a_1261_n100# 0.00fF
C113 a_2351_n188# a_1261_n100# 0.00fF
C114 a_n287_n100# a_n1061_n100# 0.00fF
C115 a_803_n188# a_n29_n100# 0.00fF
C116 a_1319_n188# a_1835_n188# 0.00fF
C117 a_n1577_n100# a_n2551_n188# 0.00fF
C118 a_1003_n100# a_1061_n188# 0.00fF
C119 a_n229_n188# a_229_n100# 0.00fF
C120 a_803_n188# a_n287_n100# 0.00fF
C121 a_n745_n188# a_n1577_n100# 0.00fF
C122 a_n745_n188# a_229_n100# 0.00fF
C123 a_803_n188# a_487_n100# 0.00fF
C124 a_1319_n188# a_1577_n188# 0.10fF
C125 a_745_n100# a_229_n100# 0.00fF
C126 a_29_n188# a_545_n188# 0.00fF
C127 a_n803_n100# a_n487_n188# 0.00fF
C128 a_n803_n100# a_n1777_n188# 0.00fF
C129 a_n1261_n188# a_n1003_n188# 0.10fF
C130 a_1319_n188# a_287_n188# 0.00fF
C131 a_1003_n100# a_2093_n188# 0.00fF
C132 a_n745_n188# a_n229_n188# 0.00fF
C133 a_n1003_n188# a_n1519_n188# 0.00fF
C134 a_29_n188# a_n545_n100# 0.00fF
C135 a_n2035_n188# a_n2609_n100# 0.00fF
C136 a_745_n100# a_n229_n188# 0.00fF
C137 a_n2293_n188# a_n2609_n100# 0.00fF
C138 a_1003_n100# a_1261_n100# 0.06fF
C139 a_n1061_n100# a_n1003_n188# 0.00fF
C140 a_n803_n100# a_n29_n100# 0.00fF
C141 a_n1261_n188# a_n1835_n100# 0.00fF
C142 a_1003_n100# a_n29_n100# 0.00fF
C143 a_n803_n100# a_n287_n100# 0.00fF
C144 a_n1835_n100# a_n1519_n188# 0.00fF
C145 a_487_n100# a_n803_n100# 0.00fF
C146 a_1835_n188# a_2293_n100# 0.00fF
C147 a_1003_n100# a_n287_n100# 0.00fF
C148 a_n2093_n100# a_n1777_n188# 0.00fF
C149 a_n1835_n100# a_n1061_n100# 0.00fF
C150 a_487_n100# a_1003_n100# 0.00fF
C151 a_29_n188# a_229_n100# 0.00fF
C152 a_1577_n188# a_2293_n100# 0.00fF
C153 a_29_n188# a_n229_n188# 0.10fF
C154 a_n745_n188# a_29_n188# 0.00fF
C155 a_n2609_n100# a_n2351_n100# 0.06fF
C156 a_1319_n188# a_545_n188# 0.00fF
C157 a_29_n188# a_745_n100# 0.00fF
C158 a_n803_n100# a_n1003_n188# 0.00fF
C159 a_n487_n188# a_n1319_n100# 0.00fF
C160 a_1835_n188# a_1061_n188# 0.00fF
C161 a_n1777_n188# a_n1319_n100# 0.00fF
C162 a_n1835_n100# a_n803_n100# 0.00fF
C163 a_1061_n188# a_1577_n188# 0.00fF
C164 a_1777_n100# a_2035_n100# 0.06fF
C165 a_1319_n188# a_229_n100# 0.00fF
C166 a_1835_n188# a_2093_n188# 0.10fF
C167 a_n2093_n100# a_n1003_n188# 0.00fF
C168 a_n1319_n100# a_n29_n100# 0.00fF
C169 a_1061_n188# a_287_n188# 0.00fF
C170 a_n1577_n100# a_n2609_n100# 0.00fF
C171 a_1777_n100# a_1519_n100# 0.06fF
C172 a_2035_n100# a_1519_n100# 0.00fF
C173 a_n287_n100# a_n1319_n100# 0.00fF
C174 a_1835_n188# a_1261_n100# 0.00fF
C175 a_2093_n188# a_1577_n188# 0.00fF
C176 a_n2551_n188# a_n2609_n100# 0.00fF
C177 a_n1835_n100# a_n2093_n100# 0.06fF
C178 a_n487_n188# a_287_n188# 0.00fF
C179 a_1261_n100# a_1577_n188# 0.00fF
C180 a_1319_n188# a_745_n100# 0.00fF
C181 a_n2035_n188# a_n1777_n188# 0.10fF
C182 a_n1261_n188# a_n1519_n188# 0.10fF
C183 a_n1777_n188# a_n2293_n188# 0.00fF
C184 a_1261_n100# a_287_n188# 0.00fF
C185 a_803_n188# a_1777_n100# 0.00fF
C186 a_803_n188# a_2035_n100# 0.00fF
C187 a_n1261_n188# a_n1061_n100# 0.00fF
C188 a_2351_n188# a_2035_n100# 0.00fF
C189 a_2351_n188# a_1777_n100# 0.00fF
C190 a_487_n100# a_1577_n188# 0.00fF
C191 a_n1061_n100# a_n1519_n188# 0.00fF
C192 a_287_n188# a_n29_n100# 0.00fF
C193 a_803_n188# a_1519_n100# 0.00fF
C194 a_n1319_n100# a_n1003_n188# 0.00fF
C195 a_n287_n100# a_287_n188# 0.00fF
C196 a_2351_n188# a_1519_n100# 0.00fF
C197 a_487_n100# a_287_n188# 0.00fF
C198 a_1061_n188# a_545_n188# 0.00fF
C199 a_1319_n188# a_29_n188# 0.00fF
C200 a_n1835_n100# a_n1319_n100# 0.00fF
C201 a_2551_n100# a_1319_n188# 0.00fF
C202 a_n1777_n188# a_n2351_n100# 0.00fF
C203 a_n487_n188# a_545_n188# 0.00fF
C204 a_1003_n100# a_2035_n100# 0.00fF
C205 a_1003_n100# a_1777_n100# 0.00fF
C206 a_n1261_n188# a_n803_n100# 0.00fF
C207 a_n487_n188# a_n545_n100# 0.00fF
C208 a_1261_n100# a_545_n188# 0.00fF
C209 a_287_n188# a_n1003_n188# 0.00fF
C210 a_n1777_n188# a_n545_n100# 0.00fF
C211 a_n2035_n188# a_n1003_n188# 0.00fF
C212 a_n803_n100# a_n1519_n188# 0.00fF
C213 a_n2293_n188# a_n1003_n188# 0.00fF
C214 a_1003_n100# a_1519_n100# 0.00fF
C215 a_545_n188# a_n29_n100# 0.00fF
C216 a_1061_n188# a_229_n100# 0.00fF
C217 a_n803_n100# a_n1061_n100# 0.06fF
C218 a_n287_n100# a_545_n188# 0.00fF
C219 a_487_n100# a_545_n188# 0.00fF
C220 a_n545_n100# a_n29_n100# 0.00fF
C221 a_n2035_n188# a_n1835_n100# 0.00fF
C222 a_n1835_n100# a_n2293_n188# 0.00fF
C223 a_1061_n188# a_n229_n188# 0.00fF
C224 a_n487_n188# a_229_n100# 0.00fF
C225 a_n1577_n100# a_n487_n188# 0.00fF
C226 a_n287_n100# a_n545_n100# 0.06fF
C227 a_n1577_n100# a_n1777_n188# 0.00fF
C228 a_n1261_n188# a_n2093_n100# 0.00fF
C229 a_803_n188# a_1003_n100# 0.00fF
C230 a_2551_n100# a_2293_n100# 0.06fF
C231 a_487_n100# a_n545_n100# 0.00fF
C232 a_1061_n188# a_745_n100# 0.00fF
C233 a_n2093_n100# a_n1519_n188# 0.00fF
C234 a_n1777_n188# a_n2551_n188# 0.00fF
C235 a_1261_n100# a_229_n100# 0.00fF
C236 a_n487_n188# a_n229_n188# 0.10fF
C237 a_n745_n188# a_n487_n188# 0.10fF
C238 a_n745_n188# a_n1777_n188# 0.00fF
C239 a_n2093_n100# a_n1061_n100# 0.00fF
C240 a_n487_n188# a_745_n100# 0.00fF
C241 a_229_n100# a_n29_n100# 0.06fF
C242 a_n1577_n100# a_n287_n100# 0.00fF
C243 a_n287_n100# a_229_n100# 0.00fF
C244 a_487_n100# a_229_n100# 0.06fF
C245 a_1261_n100# a_745_n100# 0.00fF
C246 a_n229_n188# a_n29_n100# 0.00fF
C247 a_n745_n188# a_n29_n100# 0.00fF
C248 a_n545_n100# a_n1003_n188# 0.00fF
C249 a_n1835_n100# a_n2351_n100# 0.00fF
C250 a_745_n100# a_n29_n100# 0.00fF
C251 a_n287_n100# a_n229_n188# 0.00fF
C252 a_29_n188# a_1061_n188# 0.00fF
C253 a_n745_n188# a_n287_n100# 0.00fF
C254 a_487_n100# a_n229_n188# 0.00fF
C255 a_n745_n188# a_487_n100# 0.00fF
C256 a_n1261_n188# a_n1319_n100# 0.00fF
C257 a_n287_n100# a_745_n100# 0.00fF
C258 a_487_n100# a_745_n100# 0.06fF
C259 a_1777_n100# a_1835_n188# 0.00fF
C260 a_1835_n188# a_2035_n100# 0.00fF
C261 a_n1319_n100# a_n1519_n188# 0.00fF
C262 a_n1835_n100# a_n545_n100# 0.00fF
C263 a_1319_n188# a_2293_n100# 0.00fF
C264 a_n487_n188# a_29_n188# 0.00fF
C265 a_1777_n100# a_1577_n188# 0.00fF
C266 a_2035_n100# a_1577_n188# 0.00fF
C267 a_n1319_n100# a_n1061_n100# 0.06fF
C268 a_n803_n100# a_n2093_n100# 0.00fF
C269 a_n1003_n188# a_229_n100# 0.00fF
C270 a_n1577_n100# a_n1003_n188# 0.00fF
C271 a_2551_n100# a_2093_n188# 0.00fF
C272 a_1835_n188# a_1519_n100# 0.00fF
C273 a_29_n188# a_1261_n100# 0.00fF
C274 a_2551_n100# a_1261_n100# 0.00fF
C275 a_1519_n100# a_1577_n188# 0.00fF
C276 a_n229_n188# a_n1003_n188# 0.00fF
C277 a_29_n188# a_n29_n100# 0.00fF
C278 a_n745_n188# a_n1003_n188# 0.10fF
C279 a_n1835_n100# a_n1577_n100# 0.06fF
C280 a_n2035_n188# a_n1261_n188# 0.00fF
C281 a_n1261_n188# a_n2293_n188# 0.00fF
C282 a_29_n188# a_n287_n100# 0.00fF
C283 a_1519_n100# a_287_n188# 0.00fF
C284 a_487_n100# a_29_n188# 0.00fF
C285 a_803_n188# a_1835_n188# 0.00fF
C286 a_n1835_n100# a_n2551_n188# 0.00fF
C287 a_2351_n188# a_1835_n188# 0.00fF
C288 a_n2035_n188# a_n1519_n188# 0.00fF
C289 a_n2293_n188# a_n1519_n188# 0.00fF
C290 a_n1835_n100# a_n745_n188# 0.00fF
C291 a_803_n188# a_1577_n188# 0.00fF
C292 a_1319_n188# a_1061_n188# 0.10fF
C293 a_n2035_n188# a_n1061_n100# 0.00fF
C294 a_2351_n188# a_1577_n188# 0.00fF
C295 a_n2293_n188# a_n1061_n100# 0.00fF
C296 a_n803_n100# a_n1319_n100# 0.00fF
C297 a_803_n188# a_287_n188# 0.00fF
C298 a_1319_n188# a_2093_n188# 0.00fF
C299 a_29_n188# a_n1003_n188# 0.00fF
C300 a_n1777_n188# a_n2609_n100# 0.00fF
C301 a_1777_n100# a_545_n188# 0.00fF
C302 a_n1261_n188# a_n2351_n100# 0.00fF
C303 a_1319_n188# a_1261_n100# 0.00fF
C304 a_1003_n100# a_1835_n188# 0.00fF
C305 a_n2351_n100# a_n1519_n188# 0.00fF
C306 a_545_n188# a_1519_n100# 0.00fF
C307 a_n2093_n100# a_n1319_n100# 0.00fF
C308 a_1003_n100# a_1577_n188# 0.00fF
C309 a_n1061_n100# a_n2351_n100# 0.00fF
C310 a_n803_n100# a_287_n188# 0.00fF
C311 a_n1261_n188# a_n545_n100# 0.00fF
C312 a_1061_n188# a_2293_n100# 0.00fF
C313 a_n2035_n188# a_n803_n100# 0.00fF
C314 a_487_n100# a_1319_n188# 0.00fF
C315 a_1003_n100# a_287_n188# 0.00fF
C316 a_n545_n100# a_n1519_n188# 0.00fF
C317 a_803_n188# a_545_n188# 0.10fF
C318 a_n545_n100# a_n1061_n100# 0.00fF
C319 a_2093_n188# a_2293_n100# 0.00fF
C320 a_n1261_n188# a_n1577_n100# 0.00fF
C321 a_1261_n100# a_2293_n100# 0.00fF
C322 a_1519_n100# a_229_n100# 0.00fF
C323 a_n2035_n188# a_n2093_n100# 0.00fF
C324 a_n1577_n100# a_n1519_n188# 0.00fF
C325 a_n2093_n100# a_n2293_n188# 0.00fF
C326 a_n1261_n188# a_n2551_n188# 0.00fF
C327 a_2035_n100# a_745_n100# 0.00fF
C328 a_1777_n100# a_745_n100# 0.00fF
C329 a_n1261_n188# a_n229_n188# 0.00fF
C330 a_n1261_n188# a_n745_n188# 0.00fF
C331 a_n2551_n188# a_n1519_n188# 0.00fF
C332 a_n1577_n100# a_n1061_n100# 0.00fF
C333 a_n1061_n100# a_229_n100# 0.00fF
C334 a_n229_n188# a_n1519_n188# 0.00fF
C335 a_n745_n188# a_n1519_n188# 0.00fF
C336 a_1519_n100# a_745_n100# 0.00fF
C337 a_803_n188# a_229_n100# 0.00fF
C338 a_1003_n100# a_545_n188# 0.00fF
C339 a_n229_n188# a_n1061_n100# 0.00fF
C340 a_n1835_n100# a_n2609_n100# 0.00fF
C341 a_n745_n188# a_n1061_n100# 0.00fF
C342 a_n803_n100# a_n545_n100# 0.06fF
C343 a_2093_n188# a_1061_n188# 0.00fF
C344 a_803_n188# a_n229_n188# 0.00fF
C345 a_803_n188# a_745_n100# 0.00fF
C346 a_1061_n188# a_1261_n100# 0.00fF
C347 a_n2093_n100# a_n2351_n100# 0.06fF
C348 a_n2035_n188# a_n1319_n100# 0.00fF
C349 a_n1319_n100# a_n2293_n188# 0.00fF
C350 a_2551_n100# a_2035_n100# 0.00fF
C351 a_2551_n100# a_1777_n100# 0.00fF
C352 a_n487_n188# a_n1777_n188# 0.00fF
C353 a_1835_n188# a_1577_n188# 0.10fF
C354 a_1061_n188# a_n29_n100# 0.00fF
C355 a_2551_n100# a_n2711_n274# 0.11fF
C356 a_2293_n100# a_n2711_n274# 0.05fF
C357 a_2035_n100# a_n2711_n274# 0.05fF
C358 a_1777_n100# a_n2711_n274# 0.04fF
C359 a_1519_n100# a_n2711_n274# 0.04fF
C360 a_1261_n100# a_n2711_n274# 0.04fF
C361 a_1003_n100# a_n2711_n274# 0.04fF
C362 a_745_n100# a_n2711_n274# 0.04fF
C363 a_487_n100# a_n2711_n274# 0.04fF
C364 a_229_n100# a_n2711_n274# 0.04fF
C365 a_n29_n100# a_n2711_n274# 0.04fF
C366 a_n287_n100# a_n2711_n274# 0.04fF
C367 a_n545_n100# a_n2711_n274# 0.04fF
C368 a_n803_n100# a_n2711_n274# 0.04fF
C369 a_n1061_n100# a_n2711_n274# 0.04fF
C370 a_n1319_n100# a_n2711_n274# 0.04fF
C371 a_n1577_n100# a_n2711_n274# 0.04fF
C372 a_n1835_n100# a_n2711_n274# 0.04fF
C373 a_n2093_n100# a_n2711_n274# 0.05fF
C374 a_n2351_n100# a_n2711_n274# 0.05fF
C375 a_n2609_n100# a_n2711_n274# 0.13fF
C376 a_2351_n188# a_n2711_n274# 0.63fF
C377 a_2093_n188# a_n2711_n274# 0.55fF
C378 a_1835_n188# a_n2711_n274# 0.55fF
C379 a_1577_n188# a_n2711_n274# 0.55fF
C380 a_1319_n188# a_n2711_n274# 0.54fF
C381 a_1061_n188# a_n2711_n274# 0.54fF
C382 a_803_n188# a_n2711_n274# 0.54fF
C383 a_545_n188# a_n2711_n274# 0.54fF
C384 a_287_n188# a_n2711_n274# 0.54fF
C385 a_29_n188# a_n2711_n274# 0.54fF
C386 a_n229_n188# a_n2711_n274# 0.54fF
C387 a_n487_n188# a_n2711_n274# 0.54fF
C388 a_n745_n188# a_n2711_n274# 0.54fF
C389 a_n1003_n188# a_n2711_n274# 0.54fF
C390 a_n1261_n188# a_n2711_n274# 0.54fF
C391 a_n1519_n188# a_n2711_n274# 0.54fF
C392 a_n1777_n188# a_n2711_n274# 0.55fF
C393 a_n2035_n188# a_n2711_n274# 0.55fF
C394 a_n2293_n188# a_n2711_n274# 0.55fF
C395 a_n2551_n188# a_n2711_n274# 0.63fF
.ends

.subckt sky130_fd_pr__pfet_01v8_BLSBYX w_n296_n319# a_n100_n197# a_100_n100# a_n158_n100#
+ VSUBS
X0 a_100_n100# a_n100_n197# a_n158_n100# w_n296_n319# sky130_fd_pr__pfet_01v8 ad=2.9e+11p pd=2.58e+06u as=2.9e+11p ps=2.58e+06u w=1e+06u l=1e+06u
C0 a_n158_n100# w_n296_n319# 0.16fF
C1 a_100_n100# w_n296_n319# 0.07fF
C2 w_n296_n319# a_n100_n197# 0.29fF
C3 a_n158_n100# a_100_n100# 0.06fF
C4 a_100_n100# a_n100_n197# 0.00fF
C5 a_n158_n100# a_n100_n197# 0.00fF
C6 a_100_n100# VSUBS 0.06fF
C7 a_n158_n100# VSUBS 0.03fF
C8 a_n100_n197# VSUBS 0.36fF
C9 w_n296_n319# VSUBS 1.66fF
.ends

.subckt sky130_fd_pr__pfet_01v8_8L4H97 a_158_n197# a_n416_n100# w_n812_n319# a_n358_n197#
+ a_358_n100# a_416_n197# a_n100_n197# a_100_n100# a_n674_n100# a_n158_n100# a_n616_n197#
+ a_616_n100# VSUBS
X0 a_n158_n100# a_n358_n197# a_n416_n100# w_n812_n319# sky130_fd_pr__pfet_01v8 ad=2.9e+11p pd=2.58e+06u as=2.9e+11p ps=2.58e+06u w=1e+06u l=1e+06u
X1 a_100_n100# a_n100_n197# a_n158_n100# w_n812_n319# sky130_fd_pr__pfet_01v8 ad=2.9e+11p pd=2.58e+06u as=0p ps=0u w=1e+06u l=1e+06u
X2 a_616_n100# a_416_n197# a_358_n100# w_n812_n319# sky130_fd_pr__pfet_01v8 ad=2.9e+11p pd=2.58e+06u as=2.9e+11p ps=2.58e+06u w=1e+06u l=1e+06u
X3 a_358_n100# a_158_n197# a_100_n100# w_n812_n319# sky130_fd_pr__pfet_01v8 ad=0p pd=0u as=0p ps=0u w=1e+06u l=1e+06u
X4 a_n416_n100# a_n616_n197# a_n674_n100# w_n812_n319# sky130_fd_pr__pfet_01v8 ad=0p pd=0u as=2.9e+11p ps=2.58e+06u w=1e+06u l=1e+06u
C0 a_416_n197# a_n616_n197# 0.00fF
C1 a_616_n100# a_n158_n100# 0.00fF
C2 a_100_n100# a_n674_n100# 0.00fF
C3 a_616_n100# a_358_n100# 0.03fF
C4 a_n416_n100# a_n158_n100# 0.03fF
C5 a_100_n100# a_416_n197# 0.00fF
C6 a_n416_n100# a_358_n100# 0.00fF
C7 a_n158_n100# a_358_n100# 0.01fF
C8 a_n100_n197# a_158_n197# 0.11fF
C9 a_n358_n197# a_158_n197# 0.00fF
C10 a_n616_n197# a_158_n197# 0.00fF
C11 a_100_n100# a_158_n197# 0.00fF
C12 a_n416_n100# a_n674_n100# 0.03fF
C13 a_416_n197# a_616_n100# 0.00fF
C14 a_n100_n197# w_n812_n319# 0.36fF
C15 a_n358_n197# w_n812_n319# 0.36fF
C16 a_416_n197# a_n416_n100# 0.00fF
C17 w_n812_n319# a_n616_n197# 0.39fF
C18 a_n158_n100# a_n674_n100# 0.01fF
C19 a_n674_n100# a_358_n100# 0.00fF
C20 a_416_n197# a_n158_n100# 0.00fF
C21 a_416_n197# a_358_n100# 0.00fF
C22 a_100_n100# w_n812_n319# 0.05fF
C23 a_616_n100# a_158_n197# 0.00fF
C24 a_n416_n100# a_158_n197# 0.00fF
C25 a_158_n197# a_n158_n100# 0.00fF
C26 a_416_n197# a_n674_n100# 0.00fF
C27 a_158_n197# a_358_n100# 0.00fF
C28 a_n358_n197# a_n100_n197# 0.11fF
C29 a_616_n100# w_n812_n319# 0.07fF
C30 a_n100_n197# a_n616_n197# 0.00fF
C31 a_n358_n197# a_n616_n197# 0.11fF
C32 a_n416_n100# w_n812_n319# 0.05fF
C33 a_100_n100# a_n100_n197# 0.00fF
C34 a_100_n100# a_n358_n197# 0.00fF
C35 w_n812_n319# a_n158_n100# 0.05fF
C36 a_100_n100# a_n616_n197# 0.00fF
C37 w_n812_n319# a_358_n100# 0.05fF
C38 a_158_n197# a_n674_n100# 0.00fF
C39 a_416_n197# a_158_n197# 0.11fF
C40 a_616_n100# a_n100_n197# 0.00fF
C41 a_n358_n197# a_616_n100# 0.00fF
C42 w_n812_n319# a_n674_n100# 0.09fF
C43 a_n416_n100# a_n358_n197# 0.00fF
C44 a_616_n100# a_n616_n197# 0.00fF
C45 a_n416_n100# a_n100_n197# 0.00fF
C46 a_416_n197# w_n812_n319# 0.39fF
C47 a_n416_n100# a_n616_n197# 0.00fF
C48 a_n100_n197# a_n158_n100# 0.00fF
C49 a_n358_n197# a_n158_n100# 0.00fF
C50 a_100_n100# a_616_n100# 0.01fF
C51 a_n100_n197# a_358_n100# 0.00fF
C52 a_n358_n197# a_358_n100# 0.00fF
C53 a_n616_n197# a_n158_n100# 0.00fF
C54 a_100_n100# a_n416_n100# 0.01fF
C55 a_n616_n197# a_358_n100# 0.00fF
C56 a_100_n100# a_n158_n100# 0.03fF
C57 a_100_n100# a_358_n100# 0.03fF
C58 w_n812_n319# a_158_n197# 0.36fF
C59 a_n100_n197# a_n674_n100# 0.00fF
C60 a_n358_n197# a_n674_n100# 0.00fF
C61 a_n616_n197# a_n674_n100# 0.00fF
C62 a_416_n197# a_n100_n197# 0.00fF
C63 a_416_n197# a_n358_n197# 0.00fF
C64 a_n416_n100# a_616_n100# 0.00fF
C65 a_616_n100# VSUBS 0.02fF
C66 a_358_n100# VSUBS 0.01fF
C67 a_100_n100# VSUBS 0.01fF
C68 a_n158_n100# VSUBS 0.01fF
C69 a_n416_n100# VSUBS 0.01fF
C70 a_n674_n100# VSUBS 0.02fF
C71 a_416_n197# VSUBS 0.27fF
C72 a_158_n197# VSUBS 0.22fF
C73 a_n100_n197# VSUBS 0.22fF
C74 a_n358_n197# VSUBS 0.22fF
C75 a_n616_n197# VSUBS 0.27fF
C76 w_n812_n319# VSUBS 4.34fF
.ends

.subckt sky130_fd_pr__pfet_01v8_8C4HA7 a_158_n197# a_n416_n100# w_n812_n319# a_n358_n197#
+ a_358_n100# a_416_n197# a_n100_n197# a_100_n100# a_n674_n100# a_n158_n100# a_n616_n197#
+ a_616_n100# VSUBS
X0 a_n158_n100# a_n358_n197# a_n416_n100# w_n812_n319# sky130_fd_pr__pfet_01v8 ad=2.9e+11p pd=2.58e+06u as=2.9e+11p ps=2.58e+06u w=1e+06u l=1e+06u
X1 a_100_n100# a_n100_n197# a_n158_n100# w_n812_n319# sky130_fd_pr__pfet_01v8 ad=2.9e+11p pd=2.58e+06u as=0p ps=0u w=1e+06u l=1e+06u
X2 a_616_n100# a_416_n197# a_358_n100# w_n812_n319# sky130_fd_pr__pfet_01v8 ad=2.9e+11p pd=2.58e+06u as=2.9e+11p ps=2.58e+06u w=1e+06u l=1e+06u
X3 a_358_n100# a_158_n197# a_100_n100# w_n812_n319# sky130_fd_pr__pfet_01v8 ad=0p pd=0u as=0p ps=0u w=1e+06u l=1e+06u
X4 a_n416_n100# a_n616_n197# a_n674_n100# w_n812_n319# sky130_fd_pr__pfet_01v8 ad=0p pd=0u as=2.9e+11p ps=2.58e+06u w=1e+06u l=1e+06u
C0 a_616_n100# a_n358_n197# 0.00fF
C1 a_616_n100# a_n158_n100# 0.00fF
C2 a_616_n100# a_158_n197# 0.00fF
C3 a_n416_n100# a_100_n100# 0.01fF
C4 a_n100_n197# a_n674_n100# 0.00fF
C5 a_416_n197# a_n358_n197# 0.00fF
C6 a_416_n197# a_n158_n100# 0.00fF
C7 a_416_n197# a_158_n197# 0.11fF
C8 a_n616_n197# a_n358_n197# 0.11fF
C9 a_n616_n197# a_n158_n100# 0.00fF
C10 a_n100_n197# w_n812_n319# 0.36fF
C11 a_n616_n197# a_158_n197# 0.00fF
C12 a_n100_n197# a_n416_n100# 0.00fF
C13 a_n358_n197# a_n158_n100# 0.00fF
C14 a_n358_n197# a_158_n197# 0.00fF
C15 a_158_n197# a_n158_n100# 0.00fF
C16 a_616_n100# w_n812_n319# 0.07fF
C17 a_416_n197# a_n674_n100# 0.00fF
C18 a_616_n100# a_n416_n100# 0.00fF
C19 a_n616_n197# a_n674_n100# 0.00fF
C20 w_n812_n319# a_416_n197# 0.39fF
C21 w_n812_n319# a_n616_n197# 0.39fF
C22 a_416_n197# a_n416_n100# 0.00fF
C23 a_n358_n197# a_n674_n100# 0.00fF
C24 a_n674_n100# a_n158_n100# 0.01fF
C25 a_n674_n100# a_158_n197# 0.00fF
C26 a_n616_n197# a_n416_n100# 0.00fF
C27 w_n812_n319# a_n358_n197# 0.36fF
C28 w_n812_n319# a_n158_n100# 0.05fF
C29 w_n812_n319# a_158_n197# 0.36fF
C30 a_n416_n100# a_n358_n197# 0.00fF
C31 a_n416_n100# a_n158_n100# 0.03fF
C32 a_n416_n100# a_158_n197# 0.00fF
C33 a_358_n100# a_100_n100# 0.03fF
C34 w_n812_n319# a_n674_n100# 0.09fF
C35 a_n100_n197# a_358_n100# 0.00fF
C36 a_n416_n100# a_n674_n100# 0.03fF
C37 w_n812_n319# a_n416_n100# 0.05fF
C38 a_n100_n197# a_100_n100# 0.00fF
C39 a_616_n100# a_358_n100# 0.03fF
C40 a_358_n100# a_416_n197# 0.00fF
C41 a_616_n100# a_100_n100# 0.01fF
C42 a_358_n100# a_n616_n197# 0.00fF
C43 a_416_n197# a_100_n100# 0.00fF
C44 a_n616_n197# a_100_n100# 0.00fF
C45 a_358_n100# a_n358_n197# 0.00fF
C46 a_358_n100# a_n158_n100# 0.01fF
C47 a_358_n100# a_158_n197# 0.00fF
C48 a_n100_n197# a_616_n100# 0.00fF
C49 a_100_n100# a_n358_n197# 0.00fF
C50 a_100_n100# a_n158_n100# 0.03fF
C51 a_100_n100# a_158_n197# 0.00fF
C52 a_n100_n197# a_416_n197# 0.00fF
C53 a_n100_n197# a_n616_n197# 0.00fF
C54 a_n100_n197# a_n358_n197# 0.11fF
C55 a_n100_n197# a_n158_n100# 0.00fF
C56 a_n100_n197# a_158_n197# 0.11fF
C57 a_358_n100# a_n674_n100# 0.00fF
C58 a_616_n100# a_416_n197# 0.00fF
C59 a_358_n100# w_n812_n319# 0.05fF
C60 a_616_n100# a_n616_n197# 0.00fF
C61 a_100_n100# a_n674_n100# 0.00fF
C62 a_358_n100# a_n416_n100# 0.00fF
C63 w_n812_n319# a_100_n100# 0.05fF
C64 a_n616_n197# a_416_n197# 0.00fF
C65 a_616_n100# VSUBS 0.02fF
C66 a_358_n100# VSUBS 0.01fF
C67 a_100_n100# VSUBS 0.01fF
C68 a_n158_n100# VSUBS 0.01fF
C69 a_n416_n100# VSUBS 0.01fF
C70 a_n674_n100# VSUBS 0.02fF
C71 a_416_n197# VSUBS 0.27fF
C72 a_158_n197# VSUBS 0.22fF
C73 a_n100_n197# VSUBS 0.22fF
C74 a_n358_n197# VSUBS 0.22fF
C75 a_n616_n197# VSUBS 0.27fF
C76 w_n812_n319# VSUBS 4.34fF
.ends

.subckt sky130_fd_pr__nfet_01v8_GVTB53 a_n29_n100# a_n229_n188# a_n389_n274# a_n287_n100#
+ a_229_n100# a_29_n188#
X0 a_n29_n100# a_n229_n188# a_n287_n100# a_n389_n274# sky130_fd_pr__nfet_01v8 ad=2.9e+11p pd=2.58e+06u as=2.9e+11p ps=2.58e+06u w=1e+06u l=1e+06u
X1 a_229_n100# a_29_n188# a_n29_n100# a_n389_n274# sky130_fd_pr__nfet_01v8 ad=2.9e+11p pd=2.58e+06u as=0p ps=0u w=1e+06u l=1e+06u
C0 a_29_n188# a_n29_n100# 0.00fF
C1 a_n229_n188# a_n287_n100# 0.00fF
C2 a_n229_n188# a_29_n188# 0.10fF
C3 a_29_n188# a_n287_n100# 0.00fF
C4 a_229_n100# a_n29_n100# 0.06fF
C5 a_229_n100# a_n229_n188# 0.00fF
C6 a_n229_n188# a_n29_n100# 0.00fF
C7 a_229_n100# a_n287_n100# 0.00fF
C8 a_n29_n100# a_n287_n100# 0.06fF
C9 a_229_n100# a_29_n188# 0.00fF
C10 a_229_n100# a_n389_n274# 0.13fF
C11 a_n29_n100# a_n389_n274# 0.08fF
C12 a_n287_n100# a_n389_n274# 0.15fF
C13 a_29_n188# a_n389_n274# 0.70fF
C14 a_n229_n188# a_n389_n274# 0.70fF
.ends

.subckt sky130_fd_pr__pfet_01v8_8LYGA7 a_158_n197# a_n416_n100# w_n812_n319# a_n358_n197#
+ a_358_n100# a_416_n197# a_n100_n197# a_100_n100# a_n674_n100# a_n158_n100# a_n616_n197#
+ a_616_n100# VSUBS
X0 a_n158_n100# a_n358_n197# a_n416_n100# w_n812_n319# sky130_fd_pr__pfet_01v8 ad=2.9e+11p pd=2.58e+06u as=2.9e+11p ps=2.58e+06u w=1e+06u l=1e+06u
X1 a_100_n100# a_n100_n197# a_n158_n100# w_n812_n319# sky130_fd_pr__pfet_01v8 ad=2.9e+11p pd=2.58e+06u as=0p ps=0u w=1e+06u l=1e+06u
X2 a_616_n100# a_416_n197# a_358_n100# w_n812_n319# sky130_fd_pr__pfet_01v8 ad=2.9e+11p pd=2.58e+06u as=2.9e+11p ps=2.58e+06u w=1e+06u l=1e+06u
X3 a_358_n100# a_158_n197# a_100_n100# w_n812_n319# sky130_fd_pr__pfet_01v8 ad=0p pd=0u as=0p ps=0u w=1e+06u l=1e+06u
X4 a_n416_n100# a_n616_n197# a_n674_n100# w_n812_n319# sky130_fd_pr__pfet_01v8 ad=0p pd=0u as=2.9e+11p ps=2.58e+06u w=1e+06u l=1e+06u
C0 a_416_n197# a_n358_n197# 0.00fF
C1 a_n416_n100# w_n812_n319# 0.04fF
C2 a_n616_n197# a_n100_n197# 0.00fF
C3 a_n100_n197# a_n158_n100# 0.00fF
C4 a_358_n100# a_n616_n197# 0.00fF
C5 a_358_n100# a_n158_n100# 0.01fF
C6 w_n812_n319# a_100_n100# 0.04fF
C7 w_n812_n319# a_n358_n197# 0.25fF
C8 a_n416_n100# a_100_n100# 0.01fF
C9 a_n416_n100# a_n358_n197# 0.00fF
C10 a_100_n100# a_n358_n197# 0.00fF
C11 a_416_n197# a_n674_n100# 0.00fF
C12 w_n812_n319# a_n674_n100# 0.12fF
C13 a_416_n197# a_n616_n197# 0.00fF
C14 a_416_n197# a_n158_n100# 0.00fF
C15 a_n416_n100# a_n674_n100# 0.03fF
C16 w_n812_n319# a_n616_n197# 0.30fF
C17 w_n812_n319# a_n158_n100# 0.04fF
C18 a_100_n100# a_n674_n100# 0.00fF
C19 a_n674_n100# a_n358_n197# 0.00fF
C20 a_n416_n100# a_n158_n100# 0.03fF
C21 a_n416_n100# a_n616_n197# 0.00fF
C22 a_158_n197# a_616_n100# 0.00fF
C23 a_100_n100# a_n616_n197# 0.00fF
C24 a_100_n100# a_n158_n100# 0.03fF
C25 a_n616_n197# a_n358_n197# 0.11fF
C26 a_n358_n197# a_n158_n100# 0.00fF
C27 a_616_n100# a_n100_n197# 0.00fF
C28 a_358_n100# a_616_n100# 0.03fF
C29 a_158_n197# a_n100_n197# 0.11fF
C30 a_358_n100# a_158_n197# 0.00fF
C31 a_358_n100# a_n100_n197# 0.00fF
C32 a_n674_n100# a_n158_n100# 0.01fF
C33 a_n616_n197# a_n674_n100# 0.00fF
C34 a_416_n197# a_616_n100# 0.00fF
C35 a_n616_n197# a_n158_n100# 0.00fF
C36 a_416_n197# a_158_n197# 0.11fF
C37 a_616_n100# w_n812_n319# 0.06fF
C38 a_158_n197# w_n812_n319# 0.25fF
C39 a_416_n197# a_n100_n197# 0.00fF
C40 a_358_n100# a_416_n197# 0.00fF
C41 a_n416_n100# a_616_n100# 0.00fF
C42 a_158_n197# a_n416_n100# 0.00fF
C43 a_616_n100# a_100_n100# 0.01fF
C44 a_616_n100# a_n358_n197# 0.00fF
C45 w_n812_n319# a_n100_n197# 0.25fF
C46 a_358_n100# w_n812_n319# 0.04fF
C47 a_158_n197# a_100_n100# 0.00fF
C48 a_158_n197# a_n358_n197# 0.00fF
C49 a_n416_n100# a_n100_n197# 0.00fF
C50 a_358_n100# a_n416_n100# 0.00fF
C51 a_100_n100# a_n100_n197# 0.00fF
C52 a_358_n100# a_100_n100# 0.03fF
C53 a_n100_n197# a_n358_n197# 0.11fF
C54 a_358_n100# a_n358_n197# 0.00fF
C55 a_158_n197# a_n674_n100# 0.00fF