* NGSPICE file created from device-complete.ext - technology: sky130A

.subckt device-complete gnd clk out_sigma vts ib out_buff vd out vpwr
X0 gnd.t71 buffer_0.d out_buff.t5 gnd.t70 sky130_fd_pr__nfet_01v8 ad=0.145 pd=1.29 as=0.145 ps=1.29 w=1 l=1
X1 a_16688_5320# a_16854_3988# gnd.t91 sky130_fd_pr__res_xhigh_po_0p35 l=4.5
X2 vd.t68 buffer_0.a.t17 buffer_0.d vd.t67 sky130_fd_pr__pfet_01v8 ad=0.145 pd=1.29 as=0.145 ps=1.29 w=1 l=1
X3 sensor_0.a.t11 sensor_0.b.t20 gnd.t77 gnd.t76 sky130_fd_pr__nfet_01v8 ad=0.29 pd=2.58 as=0.29 ps=2.58 w=1 l=1
X4 out_buff.t2 buffer_0.d gnd.t69 gnd.t68 sky130_fd_pr__nfet_01v8 ad=0.145 pd=1.29 as=0.145 ps=1.29 w=1 l=1
X5 sensor_0.b.t16 sensor_0.b.t15 gnd.t72 gnd.t18 sky130_fd_pr__nfet_01v8 ad=0.29 pd=2.58 as=0.29 ps=2.58 w=1 l=1
X6 a_15868_2881# a_14791_2515# a_15706_2515# vpwr.t25 sky130_fd_pr__pfet_01v8_hvt ad=0.0567 pd=0.69 as=0.0588 ps=0.7 w=0.42 l=0.15
X7 gnd.t130 vpwr.t30 a_15403_2515# gnd.t129 sky130_fd_pr__nfet_01v8 ad=0.135 pd=1.15 as=0.0441 ps=0.63 w=0.42 l=0.15
X8 a_15546_5320# a_15712_3988# gnd.t16 sky130_fd_pr__res_xhigh_po_0p35 l=4.5
X9 vd.t66 buffer_0.a.t18 buffer_0.d vd.t65 sky130_fd_pr__pfet_01v8 ad=0.145 pd=1.29 as=0.145 ps=1.29 w=1 l=1
X10 buffer_0.a.t16 buffer_0.a.t14 buffer_0.a.t15 gnd.t164 sky130_fd_pr__nfet_01v8 ad=0.29 pd=2.58 as=0 ps=0 w=1 l=1
X11 gnd.t154 sensor_0.b.t21 vtd.t7 gnd.t3 sky130_fd_pr__nfet_01v8 ad=0.29 pd=2.58 as=0.29 ps=2.58 w=1 l=1
X12 a_15141_2515# a_14791_2515# a_15046_2515# vpwr.t24 sky130_fd_pr__pfet_01v8_hvt ad=0.0724 pd=0.765 as=0.0651 ps=0.73 w=0.42 l=0.15
X13 sensor_0.c sensor_0.c sensor_0.c vd.t42 sky130_fd_pr__pfet_01v8 ad=0.58 pd=4.58 as=4.64 ps=36.6 w=2 l=1
X14 buffer_0.c.t20 vts.t25 buffer_0.b.t3 gnd.t140 sky130_fd_pr__nfet_01v8 ad=0.145 pd=1.29 as=0.145 ps=1.29 w=1 l=1
X15 gnd.t118 gnd.t116 gnd.t117 gnd.t94 sky130_fd_pr__nfet_01v8 ad=0.29 pd=2.58 as=0 ps=0 w=1 l=1
X16 a_14550_5320# a_14716_3988# gnd.t9 sky130_fd_pr__res_xhigh_po_0p35 l=4.5
X17 a_15815_2515# a_14625_2515# a_15706_2515# gnd.t29 sky130_fd_pr__nfet_01v8 ad=0.0669 pd=0.75 as=0.0711 ps=0.755 w=0.36 l=0.15
X18 vd.t64 buffer_0.a.t19 buffer_0.d vd.t63 sky130_fd_pr__pfet_01v8 ad=0.145 pd=1.29 as=0.29 ps=2.58 w=1 l=1
X19 buffer_0.c.t9 out_buff.t21 buffer_0.a.t9 gnd.t128 sky130_fd_pr__nfet_01v8 ad=0.145 pd=1.29 as=0.145 ps=1.29 w=1 l=1
X20 gnd.t165 sensor_0.b.t13 sensor_0.b.t14 gnd.t74 sky130_fd_pr__nfet_01v8 ad=0.29 pd=2.58 as=0.29 ps=2.58 w=1 l=1
X21 vts.t16 vtd.t20 vtd.t21 vts.t15 sky130_fd_pr__pfet_01v8 ad=0.29 pd=2.29 as=0.29 ps=2.29 w=2 l=1
X22 a_16356_5320# a_16522_3988# gnd.t8 sky130_fd_pr__res_xhigh_po_0p35 l=4.5
X23 vd.t23 vd.t21 vd.t23 vd.t22 sky130_fd_pr__pfet_01v8 ad=0.145 pd=1.29 as=0 ps=0 w=1 l=1
X24 buffer_0.c.t19 vts.t26 buffer_0.b.t0 gnd.t7 sky130_fd_pr__nfet_01v8 ad=0.145 pd=1.29 as=0.145 ps=1.29 w=1 l=1
X25 gnd.t160 ib.t0 ib.t1 gnd.t159 sky130_fd_pr__nfet_01v8 ad=0.145 pd=1.29 as=0.145 ps=1.29 w=1 l=1
X26 buffer_0.d buffer_0.d gnd.t67 gnd.t66 sky130_fd_pr__nfet_01v8 ad=0.145 pd=1.29 as=0.145 ps=1.29 w=1 l=1
X27 gnd.t115 gnd.t113 gnd.t114 gnd.t98 sky130_fd_pr__nfet_01v8 ad=0.29 pd=2.58 as=0 ps=0 w=1 l=1
X28 vtd.t13 vtd.t12 vts.t14 vts.t13 sky130_fd_pr__pfet_01v8 ad=0.29 pd=2.29 as=0.29 ps=2.29 w=2 l=1
X29 gnd.t14 sensor_0.b.t22 sensor_0.a.t10 gnd.t5 sky130_fd_pr__nfet_01v8 ad=0.29 pd=2.58 as=0.29 ps=2.58 w=1 l=1
X30 vd.t30 buffer_0.b.t10 out_buff.t14 vd.t29 sky130_fd_pr__pfet_01v8 ad=0.145 pd=1.29 as=0.145 ps=1.29 w=1 l=1
X31 gnd.t112 gnd.t110 gnd.t111 gnd.t98 sky130_fd_pr__nfet_01v8 ad=0.29 pd=2.58 as=0 ps=0 w=1 l=1
X32 vtd.t6 sensor_0.b.t23 gnd.t2 gnd.t1 sky130_fd_pr__nfet_01v8 ad=0.29 pd=2.58 as=0.29 ps=2.58 w=1 l=1
X33 out_sigma.t0 a_16445_2515# vpwr.t29 vpwr.t28 sky130_fd_pr__pfet_01v8_hvt ad=0.26 pd=2.52 as=0.154 ps=1.34 w=1 l=0.15
X34 gnd.t65 buffer_0.d out_buff.t8 gnd.t64 sky130_fd_pr__nfet_01v8 ad=0.145 pd=1.29 as=0.145 ps=1.29 w=1 l=1
X35 vts.t12 vtd.t14 vtd.t15 vts.t11 sky130_fd_pr__pfet_01v8 ad=0.29 pd=2.29 as=0.29 ps=2.29 w=2 l=1
X36 buffer_0.c.t8 out_buff.t22 buffer_0.a.t8 gnd.t127 sky130_fd_pr__nfet_01v8 ad=0.145 pd=1.29 as=0.145 ps=1.29 w=1 l=1
X37 vtd.t5 sensor_0.b.t24 gnd.t92 gnd.t1 sky130_fd_pr__nfet_01v8 ad=0.29 pd=2.58 as=0.29 ps=2.58 w=1 l=1
X38 vpwr.t7 clk.t0 a_14625_2515# vpwr.t6 sky130_fd_pr__pfet_01v8_hvt ad=0.0864 pd=0.91 as=0.166 ps=1.8 w=0.64 l=0.15
X39 out_buff.t11 buffer_0.d gnd.t63 gnd.t62 sky130_fd_pr__nfet_01v8 ad=0.145 pd=1.29 as=0.145 ps=1.29 w=1 l=1
X40 a_17020_5320# sigma-delta_0.x1.Q gnd.t23 sky130_fd_pr__res_xhigh_po_0p35 l=4.5
X41 a_15237_2515# a_14791_2515# a_15141_2515# gnd.t134 sky130_fd_pr__nfet_01v8 ad=0.14 pd=1.1 as=0.0594 ps=0.69 w=0.36 l=0.15
X42 a_15706_2515# a_14625_2515# a_15359_2757# vpwr.t15 sky130_fd_pr__pfet_01v8_hvt ad=0.0588 pd=0.7 as=0.129 ps=1.18 w=0.42 l=0.15
X43 vtd.t17 vtd.t16 vts.t10 vts.t9 sky130_fd_pr__pfet_01v8 ad=0.29 pd=2.29 as=0.29 ps=2.29 w=2 l=1
X44 vd.t80 a_6126_29386# gnd.t168 sky130_fd_pr__res_xhigh_po_0p35 l=5
X45 sensor_0.b.t19 vtd.t24 sensor_0.c vd.t39 sky130_fd_pr__pfet_01v8 ad=0.29 pd=2.29 as=0.58 ps=4.58 w=2 l=1
X46 a_15359_2757# a_15141_2515# vpwr.t11 vpwr.t10 sky130_fd_pr__pfet_01v8_hvt ad=0.129 pd=1.18 as=0.218 ps=2.2 w=0.84 l=0.15
X47 gnd.t25 clk.t1 a_14625_2515# gnd.t24 sky130_fd_pr__nfet_01v8 ad=0.0567 pd=0.69 as=0.109 ps=1.36 w=0.42 l=0.15
X48 buffer_0.a.t11 buffer_0.a.t10 vd.t62 vd.t61 sky130_fd_pr__pfet_01v8 ad=0.29 pd=2.58 as=0.29 ps=2.58 w=1 l=1
X49 gnd.t75 sensor_0.b.t11 sensor_0.b.t12 gnd.t74 sky130_fd_pr__nfet_01v8 ad=0.29 pd=2.58 as=0.29 ps=2.58 w=1 l=1
X50 vpwr.t9 a_15706_2515# a_15881_2489# vpwr.t8 sky130_fd_pr__pfet_01v8_hvt ad=0.213 pd=1.67 as=0.0567 ps=0.69 w=0.42 l=0.15
X51 vts.t8 vtd.t18 vtd.t19 vts.t7 sky130_fd_pr__pfet_01v8 ad=0.29 pd=2.29 as=0.58 ps=4.58 w=2 l=1
X52 a_15046_2515# sigma-delta_0.x1.D vpwr.t27 vpwr.t26 sky130_fd_pr__pfet_01v8_hvt ad=0.0651 pd=0.73 as=0.109 ps=1.36 w=0.42 l=0.15
X53 vd.t41 sensor_0.a.t2 sensor_0.a.t3 vd.t40 sky130_fd_pr__pfet_01v8 ad=0.29 pd=2.29 as=0.58 ps=4.58 w=2 l=1
X54 gnd.t61 buffer_0.d buffer_0.d gnd.t60 sky130_fd_pr__nfet_01v8 ad=0.145 pd=1.29 as=0.145 ps=1.29 w=1 l=1
X55 a_15881_2489# a_15706_2515# a_16060_2515# gnd.t20 sky130_fd_pr__nfet_01v8 ad=0.109 pd=1.36 as=0.064 ps=0.725 w=0.42 l=0.15
X56 buffer_0.a.t2 out_buff.t23 buffer_0.c.t7 gnd.t126 sky130_fd_pr__nfet_01v8 ad=0.145 pd=1.29 as=0.145 ps=1.29 w=1 l=1
X57 sensor_0.b.t10 sensor_0.b.t9 gnd.t19 gnd.t18 sky130_fd_pr__nfet_01v8 ad=0.29 pd=2.58 as=0.29 ps=2.58 w=1 l=1
X58 a_14882_5320# a_15048_3988# gnd.t12 sky130_fd_pr__res_xhigh_po_0p35 l=4.5
X59 buffer_0.d buffer_0.a.t20 vd.t60 vd.t59 sky130_fd_pr__pfet_01v8 ad=0.29 pd=2.58 as=0.145 ps=1.29 w=1 l=1
X60 gnd.t85 sensor_0.b.t25 sensor_0.a.t9 gnd.t5 sky130_fd_pr__nfet_01v8 ad=0.29 pd=2.58 as=0.29 ps=2.58 w=1 l=1
X61 buffer_0.c.t18 vts.t27 buffer_0.b.t5 gnd.t132 sky130_fd_pr__nfet_01v8 ad=0.145 pd=1.29 as=0.145 ps=1.29 w=1 l=1
X62 buffer_0.c.t17 vts.t28 buffer_0.b.t4 gnd.t13 sky130_fd_pr__nfet_01v8 ad=0.145 pd=1.29 as=0.145 ps=1.29 w=1 l=1
X63 buffer_0.b.t1 vts.t29 buffer_0.c.t16 gnd.t131 sky130_fd_pr__nfet_01v8 ad=0.145 pd=1.29 as=0.145 ps=1.29 w=1 l=1
X64 buffer_0.b.t7 vts.t30 buffer_0.c.t15 gnd.t87 sky130_fd_pr__nfet_01v8 ad=0.145 pd=1.29 as=0.145 ps=1.29 w=1 l=1
X65 sigma-delta_0.x1.Q a_15881_2489# gnd.t83 gnd.t82 sky130_fd_pr__nfet_01v8 ad=0.169 pd=1.82 as=0.169 ps=1.82 w=0.65 l=0.15
X66 vd.t58 buffer_0.a.t21 buffer_0.d vd.t57 sky130_fd_pr__pfet_01v8 ad=0.29 pd=2.58 as=0.145 ps=1.29 w=1 l=1
X67 buffer_0.c.t10 ib.t5 gnd.t144 gnd.t143 sky130_fd_pr__nfet_01v8 ad=0.29 pd=2.58 as=0.145 ps=1.29 w=1 l=1
X68 vts.t24 vts.t21 vts.t23 vts.t22 sky130_fd_pr__pfet_01v8 ad=0.58 pd=4.58 as=0 ps=0 w=2 l=1
X69 buffer_0.c.t6 out_buff.t24 buffer_0.a.t1 gnd.t125 sky130_fd_pr__nfet_01v8 ad=0.145 pd=1.29 as=0.145 ps=1.29 w=1 l=1
X70 gnd.t59 buffer_0.d buffer_0.d gnd.t58 sky130_fd_pr__nfet_01v8 ad=0.145 pd=1.29 as=0.29 ps=2.58 w=1 l=1
X71 gnd.t57 buffer_0.d buffer_0.d gnd.t56 sky130_fd_pr__nfet_01v8 ad=0.145 pd=1.29 as=0.145 ps=1.29 w=1 l=1
X72 a_15359_2757# a_15141_2515# gnd.t22 gnd.t21 sky130_fd_pr__nfet_01v8 ad=0.0999 pd=0.985 as=0.135 ps=1.15 w=0.64 l=0.15
X73 vpwr.t17 a_15359_2757# a_15249_2881# vpwr.t16 sky130_fd_pr__pfet_01v8_hvt ad=0.0703 pd=0.755 as=0.116 ps=0.97 w=0.42 l=0.15
X74 buffer_0.d buffer_0.a.t22 vd.t56 vd.t55 sky130_fd_pr__pfet_01v8 ad=0.145 pd=1.29 as=0.145 ps=1.29 w=1 l=1
X75 a_15706_2515# a_14791_2515# a_15359_2757# gnd.t133 sky130_fd_pr__nfet_01v8 ad=0.0711 pd=0.755 as=0.0999 ps=0.985 w=0.36 l=0.15
X76 gnd.t90 sensor_0.b.t26 vtd.t4 gnd.t3 sky130_fd_pr__nfet_01v8 ad=0.29 pd=2.58 as=0.29 ps=2.58 w=1 l=1
X77 vd.t70 vtd.t25 vts.t6 vd.t69 sky130_fd_pr__pfet_01v8 ad=0.58 pd=4.58 as=0.58 ps=4.58 w=2 l=5
X78 vd.t54 buffer_0.a.t23 buffer_0.d vd.t53 sky130_fd_pr__pfet_01v8 ad=0.145 pd=1.29 as=0.145 ps=1.29 w=1 l=1
X79 a_15214_5320# a_15380_3988# gnd.t11 sky130_fd_pr__res_xhigh_po_0p35 l=4.5
X80 vd.t20 vd.t17 vd.t19 vd.t18 sky130_fd_pr__pfet_01v8 ad=0.58 pd=4.58 as=0 ps=0 w=2 l=1
X81 buffer_0.d buffer_0.a.t24 vd.t52 vd.t51 sky130_fd_pr__pfet_01v8 ad=0.145 pd=1.29 as=0.145 ps=1.29 w=1 l=1
X82 buffer_0.a.t13 buffer_0.a.t12 buffer_0.a.t13 gnd.t0 sky130_fd_pr__nfet_01v8 ad=0.145 pd=1.29 as=0 ps=0 w=1 l=1
X83 gnd.t109 gnd.t107 gnd.t108 gnd.t94 sky130_fd_pr__nfet_01v8 ad=0.29 pd=2.58 as=0 ps=0 w=1 l=1
X84 sensor_0.c vtd.t26 sensor_0.b.t18 vd.t36 sky130_fd_pr__pfet_01v8 ad=0.29 pd=2.29 as=0.29 ps=2.29 w=2 l=1
X85 buffer_0.a.t5 out_buff.t25 buffer_0.c.t5 gnd.t124 sky130_fd_pr__nfet_01v8 ad=0.145 pd=1.29 as=0.145 ps=1.29 w=1 l=1
X86 out_sigma.t1 a_16445_2515# gnd.t146 gnd.t145 sky130_fd_pr__nfet_01v8 ad=0.169 pd=1.82 as=0.1 ps=0.985 w=0.65 l=0.15
X87 buffer_0.d buffer_0.d gnd.t55 gnd.t54 sky130_fd_pr__nfet_01v8 ad=0.145 pd=1.29 as=0.145 ps=1.29 w=1 l=1
X88 sensor_0.a.t8 sensor_0.b.t27 gnd.t89 gnd.t76 sky130_fd_pr__nfet_01v8 ad=0.29 pd=2.58 as=0.29 ps=2.58 w=1 l=1
X89 sensor_0.a.t7 sensor_0.b.t28 gnd.t166 gnd.t76 sky130_fd_pr__nfet_01v8 ad=0.29 pd=2.58 as=0.29 ps=2.58 w=1 l=1
X90 sigma-delta_0.x1.Q a_15881_2489# vpwr.t23 vpwr.t22 sky130_fd_pr__pfet_01v8_hvt ad=0.28 pd=2.56 as=0.213 ps=1.67 w=1 l=0.15
X91 sensor_0.a.t1 sensor_0.a.t0 vd.t74 vd.t73 sky130_fd_pr__pfet_01v8 ad=0.58 pd=4.58 as=0.29 ps=2.29 w=2 l=1
X92 gnd.t53 buffer_0.d out_buff.t4 gnd.t52 sky130_fd_pr__nfet_01v8 ad=0.145 pd=1.29 as=0.145 ps=1.29 w=1 l=1
X93 vd.t83 out.t3 sky130_fd_pr__cap_mim_m3_2 l=24.4 w=24.4
X94 a_16060_2515# vpwr.t31 gnd.t157 gnd.t156 sky130_fd_pr__nfet_01v8 ad=0.064 pd=0.725 as=0.125 ps=1.01 w=0.42 l=0.15
X95 vd.t16 vd.t13 vd.t15 vd.t14 sky130_fd_pr__pfet_01v8 ad=0.29 pd=2.58 as=0 ps=0 w=1 l=1
X96 out_buff.t10 buffer_0.d gnd.t51 gnd.t50 sky130_fd_pr__nfet_01v8 ad=0.145 pd=1.29 as=0.145 ps=1.29 w=1 l=1
X97 a_16024_5320# a_16190_3988# gnd.t135 sky130_fd_pr__res_xhigh_po_0p35 l=4.5
X98 sensor_0.b.t8 sensor_0.b.t7 gnd.t147 gnd.t18 sky130_fd_pr__nfet_01v8 ad=0.29 pd=2.58 as=0.29 ps=2.58 w=1 l=1
X99 gnd.t4 sensor_0.b.t29 vtd.t3 gnd.t3 sky130_fd_pr__nfet_01v8 ad=0.29 pd=2.58 as=0.29 ps=2.58 w=1 l=1
X100 vd.t28 buffer_0.b.t11 out_buff.t13 vd.t27 sky130_fd_pr__pfet_01v8 ad=0.145 pd=1.29 as=0.29 ps=2.58 w=1 l=1
X101 a_16688_5320# a_16522_3988# gnd.t162 sky130_fd_pr__res_xhigh_po_0p35 l=4.5
X102 vd.t12 vd.t9 vd.t11 vd.t10 sky130_fd_pr__pfet_01v8 ad=0.58 pd=4.58 as=0 ps=0 w=2 l=1
X103 buffer_0.a.t6 out_buff.t26 buffer_0.c.t4 gnd.t123 sky130_fd_pr__nfet_01v8 ad=0.145 pd=1.29 as=0.145 ps=1.29 w=1 l=1
X104 sensor_0.c sensor_0.a.t12 sensor_0.d vd.t75 sky130_fd_pr__pfet_01v8 ad=0.29 pd=2.29 as=0.29 ps=2.29 w=2 l=1
X105 sensor_0.d sensor_0.a.t13 sensor_0.c vd.t78 sky130_fd_pr__pfet_01v8 ad=0.29 pd=2.29 as=0.58 ps=4.58 w=2 l=1
X106 a_15546_5320# a_15380_3988# gnd.t153 sky130_fd_pr__res_xhigh_po_0p35 l=4.5
X107 vpwr.t21 a_15881_2489# a_15868_2881# vpwr.t20 sky130_fd_pr__pfet_01v8_hvt ad=0.0819 pd=0.81 as=0.0567 ps=0.69 w=0.42 l=0.15
X108 buffer_0.c.t3 out_buff.t27 buffer_0.a.t0 gnd.t122 sky130_fd_pr__nfet_01v8 ad=0.145 pd=1.29 as=0.145 ps=1.29 w=1 l=1
X109 gnd.t106 gnd.t104 gnd.t105 gnd.t98 sky130_fd_pr__nfet_01v8 ad=0.29 pd=2.58 as=0 ps=0 w=1 l=1
X110 gnd.t103 gnd.t101 gnd.t102 gnd.t94 sky130_fd_pr__nfet_01v8 ad=0.29 pd=2.58 as=0 ps=0 w=1 l=1
X111 gnd.t100 gnd.t97 gnd.t99 gnd.t98 sky130_fd_pr__nfet_01v8 ad=0.29 pd=2.58 as=0 ps=0 w=1 l=1
X112 vd.t8 vd.t5 vd.t7 vd.t6 sky130_fd_pr__pfet_01v8 ad=0.58 pd=4.58 as=0 ps=0 w=2 l=1
X113 buffer_0.d buffer_0.d gnd.t49 gnd.t48 sky130_fd_pr__nfet_01v8 ad=0.145 pd=1.29 as=0.145 ps=1.29 w=1 l=1
X114 a_15046_2515# sigma-delta_0.x1.D gnd.t142 gnd.t141 sky130_fd_pr__nfet_01v8 ad=0.066 pd=0.745 as=0.221 ps=1.89 w=0.42 l=0.15
X115 gnd.t138 sensor_0.b.t5 sensor_0.b.t6 gnd.t74 sky130_fd_pr__nfet_01v8 ad=0.29 pd=2.58 as=0.29 ps=2.58 w=1 l=1
X116 vtd.t11 vtd.t10 vts.t5 vts.t4 sky130_fd_pr__pfet_01v8 ad=0.58 pd=4.58 as=0.29 ps=2.29 w=2 l=1
X117 vd.t38 buffer_0.b.t12 out_buff.t16 vd.t37 sky130_fd_pr__pfet_01v8 ad=0.145 pd=1.29 as=0.29 ps=2.58 w=1 l=1
X118 gnd.t47 buffer_0.d out_buff.t7 gnd.t46 sky130_fd_pr__nfet_01v8 ad=0.145 pd=1.29 as=0.145 ps=1.29 w=1 l=1
X119 gnd.t45 buffer_0.d out_buff.t6 gnd.t44 sky130_fd_pr__nfet_01v8 ad=0.145 pd=1.29 as=0.145 ps=1.29 w=1 l=1
X120 gnd.t88 sensor_0.b.t30 sensor_0.a.t6 gnd.t5 sky130_fd_pr__nfet_01v8 ad=0.29 pd=2.58 as=0.29 ps=2.58 w=1 l=1
X121 a_15141_2515# a_14625_2515# a_15046_2515# gnd.t28 sky130_fd_pr__nfet_01v8 ad=0.0594 pd=0.69 as=0.066 ps=0.745 w=0.36 l=0.15
X122 vts.t3 vtd.t8 vtd.t9 vts.t2 sky130_fd_pr__pfet_01v8 ad=0.29 pd=2.29 as=0.29 ps=2.29 w=2 l=1
X123 vtd.t2 sensor_0.b.t31 gnd.t86 gnd.t1 sky130_fd_pr__nfet_01v8 ad=0.29 pd=2.58 as=0.29 ps=2.58 w=1 l=1
X124 buffer_0.b buffer_0.b.t9 vd.t34 vd.t33 sky130_fd_pr__pfet_01v8 ad=0.29 pd=2.58 as=0.29 ps=2.58 w=1 l=1
X125 out_buff.t3 buffer_0.d gnd.t43 gnd.t42 sky130_fd_pr__nfet_01v8 ad=0.145 pd=1.29 as=0.145 ps=1.29 w=1 l=1
X126 out_buff.t28 buffer_0.d sky130_fd_pr__cap_mim_m3_2 l=15 w=30
X127 a_16356_5320# a_16190_3988# gnd.t17 sky130_fd_pr__res_xhigh_po_0p35 l=4.5
X128 out_buff.t9 buffer_0.d gnd.t41 gnd.t40 sky130_fd_pr__nfet_01v8 ad=0.145 pd=1.29 as=0.145 ps=1.29 w=1 l=1
X129 vtd.t23 vtd.t22 vts.t1 vts.t0 sky130_fd_pr__pfet_01v8 ad=0.29 pd=2.29 as=0.29 ps=2.29 w=2 l=1
X130 vtd.t1 sensor_0.b.t32 gnd.t15 gnd.t1 sky130_fd_pr__nfet_01v8 ad=0.29 pd=2.58 as=0.29 ps=2.58 w=1 l=1
X131 vd.t82 a_15712_3988# sigma-delta_0.x1.D vd.t81 sky130_fd_pr__pfet_01v8 ad=0.87 pd=6.58 as=0.87 ps=6.58 w=3 l=0.15
X132 sensor_0.c vtd.t27 sensor_0.b.t17 vd.t35 sky130_fd_pr__pfet_01v8 ad=0.58 pd=4.58 as=0.29 ps=2.29 w=2 l=1
X133 a_15214_5320# a_15048_3988# gnd.t152 sky130_fd_pr__res_xhigh_po_0p35 l=4.5
X134 vd.t84 out.t2 sky130_fd_pr__cap_mim_m3_2 l=24.4 w=24.4
X135 vd.t32 buffer_0.b.t13 out_buff.t15 vd.t31 sky130_fd_pr__pfet_01v8 ad=0.145 pd=1.29 as=0.145 ps=1.29 w=1 l=1
X136 buffer_0.d buffer_0.a.t25 vd.t50 vd.t49 sky130_fd_pr__pfet_01v8 ad=0.145 pd=1.29 as=0.145 ps=1.29 w=1 l=1
X137 sensor_0.b.t0 vtd.t28 sensor_0.c vd.t4 sky130_fd_pr__pfet_01v8 ad=0.29 pd=2.29 as=0.29 ps=2.29 w=2 l=1
X138 a_17020_5320# a_16854_3988# gnd.t84 sky130_fd_pr__res_xhigh_po_0p35 l=4.5
X139 out_buff.t12 buffer_0.b.t14 vd.t26 vd.t25 sky130_fd_pr__pfet_01v8 ad=0.145 pd=1.29 as=0.145 ps=1.29 w=1 l=1
X140 gnd.t139 sensor_0.b.t3 sensor_0.b.t4 gnd.t74 sky130_fd_pr__nfet_01v8 ad=0.29 pd=2.58 as=0.29 ps=2.58 w=1 l=1
X141 sensor_0.d vtd.t29 vd.t46 vd.t45 sky130_fd_pr__pfet_01v8 ad=0.58 pd=4.58 as=0.58 ps=4.58 w=2 l=1
X142 buffer_0.d buffer_0.d buffer_0.d gnd.t39 sky130_fd_pr__nfet_01v8 ad=0.145 pd=1.29 as=2.03 ps=18.1 w=1 l=1
X143 a_14791_2515# a_14625_2515# vpwr.t14 vpwr.t13 sky130_fd_pr__pfet_01v8_hvt ad=0.166 pd=1.8 as=0.0864 ps=0.91 w=0.64 l=0.15
X144 a_14882_5320# a_14716_3988# gnd.t167 sky130_fd_pr__res_xhigh_po_0p35 l=4.5
X145 gnd.t171 a_15712_3988# sigma-delta_0.x1.D gnd.t170 sky130_fd_pr__nfet_01v8 ad=0.29 pd=2.58 as=0.29 ps=2.58 w=1 l=0.15
X146 sensor_0.d sensor_0.a.t14 sensor_0.c vd.t79 sky130_fd_pr__pfet_01v8 ad=0.29 pd=2.29 as=0.29 ps=2.29 w=2 l=1
X147 buffer_0.a.t3 out_buff.t29 buffer_0.c.t2 gnd.t121 sky130_fd_pr__nfet_01v8 ad=0.145 pd=1.29 as=0.145 ps=1.29 w=1 l=1
X148 buffer_0.d buffer_0.a.t26 vd.t48 vd.t47 sky130_fd_pr__pfet_01v8 ad=0.145 pd=1.29 as=0.145 ps=1.29 w=1 l=1
X149 vts.t20 vts.t17 vts.t19 vts.t18 sky130_fd_pr__pfet_01v8 ad=0.58 pd=4.58 as=0 ps=0 w=2 l=1
X150 ib.t4 ib.t2 ib.t3 gnd.t149 sky130_fd_pr__nfet_01v8 ad=0.29 pd=2.58 as=0 ps=0 w=1 l=1
X151 a_14791_2515# a_14625_2515# gnd.t27 gnd.t26 sky130_fd_pr__nfet_01v8 ad=0.109 pd=1.36 as=0.0567 ps=0.69 w=0.42 l=0.15
X152 a_15249_2881# a_14625_2515# a_15141_2515# vpwr.t12 sky130_fd_pr__pfet_01v8_hvt ad=0.116 pd=0.97 as=0.0724 ps=0.765 w=0.42 l=0.15
X153 buffer_0.c.t14 vts.t31 buffer_0.b.t6 gnd.t161 sky130_fd_pr__nfet_01v8 ad=0.145 pd=1.29 as=0.145 ps=1.29 w=1 l=1
X154 sensor_0.b.t2 sensor_0.b.t1 gnd.t148 gnd.t18 sky130_fd_pr__nfet_01v8 ad=0.29 pd=2.58 as=0.29 ps=2.58 w=1 l=1
X155 gnd.t6 sensor_0.b.t33 sensor_0.a.t5 gnd.t5 sky130_fd_pr__nfet_01v8 ad=0.29 pd=2.58 as=0.29 ps=2.58 w=1 l=1
X156 a_16024_5320# a_15712_3988# gnd.t10 sky130_fd_pr__res_xhigh_po_0p35 l=4.5
X157 out_buff.t17 buffer_0.b.t15 vd.t44 vd.t43 sky130_fd_pr__pfet_01v8 ad=0.145 pd=1.29 as=0.145 ps=1.29 w=1 l=1
X158 buffer_0.b.t8 vts.t32 buffer_0.c.t13 gnd.t163 sky130_fd_pr__nfet_01v8 ad=0.145 pd=1.29 as=0.145 ps=1.29 w=1 l=1
X159 buffer_0.b.t2 vts.t33 buffer_0.c.t12 gnd.t155 sky130_fd_pr__nfet_01v8 ad=0.145 pd=1.29 as=0.145 ps=1.29 w=1 l=1
X160 vd.t85 out.t1 sky130_fd_pr__cap_mim_m3_2 l=24.4 w=24.4
X161 vd.t72 buffer_0.b.t16 out_buff.t18 vd.t71 sky130_fd_pr__pfet_01v8 ad=0.29 pd=2.58 as=0.145 ps=1.29 w=1 l=1
X162 gnd.t137 out_sigma.t2 out.t0 gnd.t136 sky130_fd_pr__nfet_01v8 ad=0.58 pd=4.58 as=0.58 ps=4.58 w=2 l=0.15
X163 vd.t1 buffer_0.b.t17 out_buff.t0 vd.t0 sky130_fd_pr__pfet_01v8 ad=0.145 pd=1.29 as=0.145 ps=1.29 w=1 l=1
X164 sensor_0.c sensor_0.a.t15 sensor_0.d vd.t24 sky130_fd_pr__pfet_01v8 ad=0.58 pd=4.58 as=0.29 ps=2.29 w=2 l=1
X165 gnd.t151 sensor_0.b.t34 vtd.t0 gnd.t3 sky130_fd_pr__nfet_01v8 ad=0.29 pd=2.58 as=0.29 ps=2.58 w=1 l=1
X166 out_buff.t20 buffer_0.b.t18 vd.t77 vd.t76 sky130_fd_pr__pfet_01v8 ad=0.145 pd=1.29 as=0.145 ps=1.29 w=1 l=1
X167 buffer_0.c.t1 out_buff.t30 buffer_0.a.t7 gnd.t120 sky130_fd_pr__nfet_01v8 ad=0.145 pd=1.29 as=0.145 ps=1.29 w=1 l=1
X168 gnd.t38 buffer_0.d buffer_0.d gnd.t37 sky130_fd_pr__nfet_01v8 ad=0.145 pd=1.29 as=0.145 ps=1.29 w=1 l=1
X169 gnd.t36 buffer_0.d buffer_0.d gnd.t35 sky130_fd_pr__nfet_01v8 ad=0.145 pd=1.29 as=0.145 ps=1.29 w=1 l=1
X170 gnd.t81 a_15881_2489# a_15815_2515# gnd.t80 sky130_fd_pr__nfet_01v8 ad=0.125 pd=1.01 as=0.0669 ps=0.75 w=0.42 l=0.15
X171 out_buff.t1 buffer_0.b.t19 vd.t3 vd.t2 sky130_fd_pr__pfet_01v8 ad=0.145 pd=1.29 as=0.145 ps=1.29 w=1 l=1
X172 a_15403_2515# a_15359_2757# a_15237_2515# gnd.t30 sky130_fd_pr__nfet_01v8 ad=0.0441 pd=0.63 as=0.14 ps=1.1 w=0.42 l=0.15
X173 buffer_0.d buffer_0.d gnd.t34 gnd.t33 sky130_fd_pr__nfet_01v8 ad=0.145 pd=1.29 as=0.145 ps=1.29 w=1 l=1
X174 a_15249_2881# vpwr.t3 vpwr.t5 vpwr.t4 sky130_fd_pr__pfet_01v8_hvt ad=0.109 pd=1.36 as=0.0703 ps=0.755 w=0.42 l=0.15
X175 buffer_0.b.t0 vts.t34 buffer_0.c.t11 gnd.t73 sky130_fd_pr__nfet_01v8 ad=0.145 pd=1.29 as=0.145 ps=1.29 w=1 l=1
X176 a_15881_2489# vpwr.t0 vpwr.t2 vpwr.t1 sky130_fd_pr__pfet_01v8_hvt ad=0.0567 pd=0.69 as=0.0819 ps=0.81 w=0.42 l=0.15
X177 a_14550_5320# out_buff.t19 gnd.t158 sky130_fd_pr__res_xhigh_po_0p35 l=4.5
X178 gnd.t79 a_15881_2489# a_16445_2515# gnd.t78 sky130_fd_pr__nfet_01v8 ad=0.1 pd=0.985 as=0.109 ps=1.36 w=0.42 l=0.15
X179 sensor_0.a.t4 sensor_0.b.t35 gnd.t150 gnd.t76 sky130_fd_pr__nfet_01v8 ad=0.29 pd=2.58 as=0.29 ps=2.58 w=1 l=1
X180 vpwr.t19 a_15881_2489# a_16445_2515# vpwr.t18 sky130_fd_pr__pfet_01v8_hvt ad=0.154 pd=1.34 as=0.166 ps=1.8 w=0.64 l=0.15
X181 buffer_0.a.t4 out_buff.t31 buffer_0.c.t0 gnd.t119 sky130_fd_pr__nfet_01v8 ad=0.145 pd=1.29 as=0.145 ps=1.29 w=1 l=1
X182 buffer_0.d buffer_0.d gnd.t32 gnd.t31 sky130_fd_pr__nfet_01v8 ad=0.145 pd=1.29 as=0.145 ps=1.29 w=1 l=1
X183 gnd.t96 gnd.t93 gnd.t95 gnd.t94 sky130_fd_pr__nfet_01v8 ad=0.29 pd=2.58 as=0 ps=0 w=1 l=1
X184 a_15712_3988# gnd.t169 sky130_fd_pr__cap_mim_m3_1 l=27.2 w=27.2
R0 out_buff.n7 out_buff.t13 30.2161
R1 out_buff.n4 out_buff.t16 29.2293
R2 out_buff.n5 out_buff.t18 28.5655
R3 out_buff.n5 out_buff.t20 28.5655
R4 out_buff.n6 out_buff.t15 28.5655
R5 out_buff.n6 out_buff.t12 28.5655
R6 out_buff.n2 out_buff.t0 28.5655
R7 out_buff.n2 out_buff.t1 28.5655
R8 out_buff.n1 out_buff.t14 28.5655
R9 out_buff.n1 out_buff.t17 28.5655
R10 out_buff.n20 out_buff.t24 26.8319
R11 out_buff.n21 out_buff.t30 25.9449
R12 out_buff.n26 out_buff.t31 25.7428
R13 out_buff.n27 out_buff.t22 25.5407
R14 out_buff.n22 out_buff.t29 25.3386
R15 out_buff.n23 out_buff.t21 25.1365
R16 out_buff.n20 out_buff.t23 24.9306
R17 out_buff.n28 out_buff.t25 24.696
R18 out_buff.n25 out_buff.t27 24.5271
R19 out_buff.n24 out_buff.t26 24.1037
R20 out_buff.n0 out_buff.t4 17.4005
R21 out_buff.n0 out_buff.t10 17.4005
R22 out_buff.n10 out_buff.t5 17.4005
R23 out_buff.n10 out_buff.t2 17.4005
R24 out_buff.n11 out_buff.t6 17.4005
R25 out_buff.n11 out_buff.t9 17.4005
R26 out_buff.n12 out_buff.t8 17.4005
R27 out_buff.n12 out_buff.t11 17.4005
R28 out_buff.n13 out_buff.t7 17.4005
R29 out_buff.n13 out_buff.t3 17.4005
R30 out_buff.n30 out_buff.t19 9.50808
R31 out_buff.n31 out_buff 5.53175
R32 out_buff.n14 out_buff.n13 2.74907
R33 out_buff.n17 out_buff.n9 2.41728
R34 out_buff.n24 out_buff.n23 2.30343
R35 out_buff.n22 out_buff.n21 2.29903
R36 out_buff.n28 out_buff.n27 2.2903
R37 out_buff.n26 out_buff.n25 2.25283
R38 out_buff.n16 out_buff.n15 2.1255
R39 out_buff.n15 out_buff.n14 2.1255
R40 out_buff.n29 out_buff.n19 1.97968
R41 out_buff.n18 out_buff.n17 1.83383
R42 out_buff.n3 out_buff.n1 1.74765
R43 out_buff.n19 out_buff.t28 1.69869
R44 out_buff out_buff.n29 1.51612
R45 out_buff.n29 out_buff.n28 1.24394
R46 out_buff.n31 out_buff.n30 1.11925
R47 out_buff.n8 out_buff.n7 1.04217
R48 out_buff.n4 out_buff.n3 1.0005
R49 out_buff.n9 out_buff.n4 0.938
R50 out_buff.n25 out_buff.n24 0.680308
R51 out_buff.n23 out_buff.n22 0.678839
R52 out_buff.n27 out_buff.n26 0.678839
R53 out_buff.n8 out_buff.n5 0.664316
R54 out_buff.n3 out_buff.n2 0.664316
R55 out_buff.n9 out_buff.n8 0.646333
R56 out_buff.n21 out_buff.n20 0.63023
R57 out_buff.n7 out_buff.n6 0.610444
R58 out_buff.n18 out_buff.n0 0.582399
R59 out_buff.n15 out_buff.n11 0.582399
R60 out_buff.n14 out_buff.n12 0.582399
R61 out_buff.n16 out_buff.n10 0.579923
R62 out_buff.n17 out_buff.n16 0.333833
R63 out_buff out_buff.n31 0.253
R64 out_buff.n19 out_buff.n18 0.250559
R65 out_buff.n30 out_buff 0.05675
R66 gnd.n267 gnd.n264 10830.2
R67 gnd.n137 gnd.n136 6394.13
R68 gnd.n61 gnd.t158 2974.74
R69 gnd.n140 gnd.n137 1867.45
R70 gnd.n137 gnd.t23 1351.39
R71 gnd.n47 gnd.n46 1273.6
R72 gnd.n58 gnd.n57 1260.8
R73 gnd.n54 gnd.n41 1088.88
R74 gnd.n31 gnd.n30 940.25
R75 gnd gnd.n61 642.758
R76 gnd.n206 gnd.n205 585
R77 gnd.n260 gnd.n259 585
R78 gnd.n262 gnd.n261 585
R79 gnd.n165 gnd.n164 585
R80 gnd.n148 gnd.n147 533.923
R81 gnd.t16 gnd.t10 523.77
R82 gnd.n148 gnd.n3 505.849
R83 gnd.n170 gnd.t18 396.608
R84 gnd.n269 gnd.t5 392.344
R85 gnd.t74 gnd.n207 353.962
R86 gnd.t23 gnd.t84 278.673
R87 gnd.t84 gnd.t91 278.673
R88 gnd.t91 gnd.t162 278.673
R89 gnd.t162 gnd.t8 278.673
R90 gnd.t135 gnd.t17 278.673
R91 gnd.t10 gnd.t135 278.673
R92 gnd.t153 gnd.t16 278.673
R93 gnd.t11 gnd.t153 278.673
R94 gnd.t152 gnd.t11 278.673
R95 gnd.t12 gnd.t152 278.673
R96 gnd.t167 gnd.t12 278.673
R97 gnd.t158 gnd.t9 278.673
R98 gnd.t9 gnd.n4 271.957
R99 gnd.n62 gnd.t145 265.026
R100 gnd.n236 gnd.t3 264.406
R101 gnd.n158 gnd.n148 257.24
R102 gnd.t141 gnd.t26 246.649
R103 gnd.n79 gnd.t142 215.036
R104 gnd.t98 gnd.n169 204.702
R105 gnd.n61 gnd.n60 181.864
R106 gnd.t78 gnd.t82 181.843
R107 gnd.t82 gnd.t20 181.843
R108 gnd.n169 gnd.n168 180.179
R109 gnd.n63 gnd.n62 179.542
R110 gnd.n238 gnd.n235 163.766
R111 gnd.t30 gnd.t134 160.564
R112 gnd.n271 gnd.n260 156.236
R113 gnd.n89 gnd.t83 154.317
R114 gnd.n217 gnd.n216 153.976
R115 gnd.n214 gnd.t1 151.393
R116 gnd.t94 gnd.n268 151.393
R117 gnd.n215 gnd.n210 150.648
R118 gnd.n69 gnd.n65 149.835
R119 gnd.n217 gnd.n206 148.707
R120 gnd.t0 gnd.t52 148.462
R121 gnd.t124 gnd.t50 148.462
R122 gnd.t7 gnd.t60 148.462
R123 gnd.t73 gnd.t31 148.462
R124 gnd.t127 gnd.t70 148.462
R125 gnd.t119 gnd.t68 148.462
R126 gnd.t161 gnd.t35 148.462
R127 gnd.t155 gnd.t48 148.462
R128 gnd.t121 gnd.t62 148.462
R129 gnd.t140 gnd.t37 148.462
R130 gnd.t163 gnd.t33 148.462
R131 gnd.t120 gnd.t46 148.462
R132 gnd.t126 gnd.t42 148.462
R133 gnd.t132 gnd.t58 148.462
R134 gnd.t156 gnd.t80 144.12
R135 gnd.n236 gnd.t76 140.732
R136 gnd.t128 gnd.n38 134.233
R137 gnd.n268 gnd.n267 131.137
R138 gnd.n91 gnd.n90 128.757
R139 gnd.t21 gnd.t129 127.677
R140 gnd.n87 gnd.n86 116.754
R141 gnd.n118 gnd.n77 107.24
R142 gnd.n105 gnd.n83 107.24
R143 gnd.t29 gnd.t133 105.43
R144 gnd.n55 gnd.t44 103.922
R145 gnd.t56 gnd.n49 102.686
R146 gnd.t143 gnd.t132 101.448
R147 gnd.t159 gnd.t131 101.448
R148 gnd.n86 gnd.t157 100.001
R149 gnd.n70 gnd.n69 98.6358
R150 gnd.t133 gnd.t21 95.7578
R151 gnd.t145 gnd.t78 93.8233
R152 gnd.n208 gnd.t74 93.8217
R153 gnd.t80 gnd.t29 92.8561
R154 gnd.t134 gnd.t28 92.8561
R155 gnd.t28 gnd.t141 91.8888
R156 gnd.n52 gnd.t40 89.0768
R157 gnd.n35 gnd.n34 88.4582
R158 gnd.n57 gnd.n54 88.0946
R159 gnd.t20 gnd.t156 88.0198
R160 gnd.n44 gnd.t54 85.9839
R161 gnd.n39 gnd.t149 81.6538
R162 gnd.t26 gnd.t24 81.2491
R163 gnd.t5 gnd.n263 76.7633
R164 gnd.n44 gnd.t39 73.6122
R165 gnd.n83 gnd.t130 72.8576
R166 gnd.n86 gnd.t81 70.0005
R167 gnd.t129 gnd.t30 69.6422
R168 gnd.n172 gnd.n165 65.8829
R169 gnd.t24 gnd 62.8715
R170 gnd.n83 gnd.t22 60.5809
R171 gnd.n41 gnd.n37 60.3613
R172 gnd.n52 gnd.t123 59.3847
R173 gnd.t131 gnd.t143 58.1476
R174 gnd.t125 gnd.t159 58.1476
R175 gnd.n90 gnd.t79 57.1434
R176 gnd.n34 gnd.n31 49.4874
R177 gnd.n271 gnd.n262 48.5652
R178 gnd.n49 gnd.t13 45.7758
R179 gnd.n77 gnd.t27 38.5719
R180 gnd.n77 gnd.t25 38.5719
R181 gnd.n252 gnd.t93 37.3602
R182 gnd.n255 gnd.t116 37.3602
R183 gnd.n258 gnd.t101 37.3602
R184 gnd.n177 gnd.t110 37.3602
R185 gnd.n180 gnd.t104 37.3602
R186 gnd.n183 gnd.t113 37.3602
R187 gnd.n107 gnd.n106 34.6358
R188 gnd.n107 gnd.n81 34.6358
R189 gnd.n111 gnd.n81 34.6358
R190 gnd.n112 gnd.n111 34.6358
R191 gnd.n113 gnd.n112 34.6358
R192 gnd.n99 gnd.n98 34.6358
R193 gnd.n100 gnd.n99 34.6358
R194 gnd.n100 gnd.n84 34.6358
R195 gnd.n104 gnd.n84 34.6358
R196 gnd.n94 gnd.n93 34.6358
R197 gnd.n95 gnd.n94 34.6358
R198 gnd.n117 gnd.n79 29.7417
R199 gnd.n93 gnd.n89 27.8593
R200 gnd.n214 gnd.n211 27.7204
R201 gnd.n90 gnd.t146 25.4291
R202 gnd.n158 gnd.t136 25.1825
R203 gnd.n155 gnd.n152 24.9897
R204 gnd.n119 gnd.n118 24.4919
R205 gnd.t168 gnd.n140 23.5887
R206 gnd.n147 gnd.t168 23.5887
R207 gnd.n118 gnd.n117 22.9652
R208 gnd.n39 gnd.t125 19.7952
R209 gnd.n174 gnd.t97 18.6812
R210 gnd.n249 gnd.t107 18.6809
R211 gnd.n95 gnd.n87 17.6946
R212 gnd.n232 gnd.t90 17.4089
R213 gnd.n202 gnd.t139 17.4089
R214 gnd.n243 gnd.t14 17.4084
R215 gnd.n241 gnd.t6 17.4084
R216 gnd.n240 gnd.t85 17.4084
R217 gnd.n243 gnd.t89 17.4084
R218 gnd.n241 gnd.t166 17.4084
R219 gnd.n240 gnd.t150 17.4084
R220 gnd.n232 gnd.t15 17.4079
R221 gnd.n202 gnd.t148 17.4079
R222 gnd.n245 gnd.t77 17.4074
R223 gnd.n245 gnd.t88 17.4074
R224 gnd.n219 gnd.t4 17.4069
R225 gnd.n219 gnd.t2 17.4055
R226 gnd.n248 gnd.t109 17.405
R227 gnd.n248 gnd.t108 17.405
R228 gnd.n251 gnd.t96 17.405
R229 gnd.n251 gnd.t95 17.405
R230 gnd.n254 gnd.t118 17.405
R231 gnd.n254 gnd.t117 17.405
R232 gnd.n257 gnd.t103 17.405
R233 gnd.n257 gnd.t102 17.405
R234 gnd.n173 gnd.t100 17.405
R235 gnd.n173 gnd.t99 17.405
R236 gnd.n176 gnd.t112 17.405
R237 gnd.n176 gnd.t111 17.405
R238 gnd.n179 gnd.t106 17.405
R239 gnd.n179 gnd.t105 17.405
R240 gnd.n182 gnd.t115 17.405
R241 gnd.n182 gnd.t114 17.405
R242 gnd.n73 gnd.t171 17.405
R243 gnd.n221 gnd.t86 17.4034
R244 gnd.n220 gnd.t154 17.4034
R245 gnd.n227 gnd.t92 17.4034
R246 gnd.n226 gnd.t151 17.4034
R247 gnd.n197 gnd.t19 17.4034
R248 gnd.n196 gnd.t75 17.4034
R249 gnd.n191 gnd.t147 17.4034
R250 gnd.n190 gnd.t138 17.4034
R251 gnd.n186 gnd.t72 17.4034
R252 gnd.n185 gnd.t165 17.4034
R253 gnd.n24 gnd.t144 17.4005
R254 gnd.n24 gnd.t160 17.4005
R255 gnd.n22 gnd.t43 17.4005
R256 gnd.n22 gnd.t59 17.4005
R257 gnd.n20 gnd.t34 17.4005
R258 gnd.n20 gnd.t47 17.4005
R259 gnd.n18 gnd.t63 17.4005
R260 gnd.n18 gnd.t38 17.4005
R261 gnd.n16 gnd.t67 17.4005
R262 gnd.n16 gnd.t65 17.4005
R263 gnd.n14 gnd.t41 17.4005
R264 gnd.n14 gnd.t57 17.4005
R265 gnd.n12 gnd.t49 17.4005
R266 gnd.n12 gnd.t45 17.4005
R267 gnd.n10 gnd.t69 17.4005
R268 gnd.n10 gnd.t36 17.4005
R269 gnd.n8 gnd.t32 17.4005
R270 gnd.n8 gnd.t71 17.4005
R271 gnd.n6 gnd.t51 17.4005
R272 gnd.n6 gnd.t61 17.4005
R273 gnd.n5 gnd.t55 17.4005
R274 gnd.n5 gnd.t53 17.4005
R275 gnd.n113 gnd.n79 14.6829
R276 gnd.n38 gnd.t64 14.228
R277 gnd.n269 gnd.t94 12.7943
R278 gnd.t50 gnd.t0 11.135
R279 gnd.t60 gnd.t124 11.135
R280 gnd.t31 gnd.t7 11.135
R281 gnd.t70 gnd.t73 11.135
R282 gnd.t68 gnd.t127 11.135
R283 gnd.t35 gnd.t119 11.135
R284 gnd.t48 gnd.t161 11.135
R285 gnd.t44 gnd.t155 11.135
R286 gnd.t40 gnd.t122 11.135
R287 gnd.t123 gnd.t56 11.135
R288 gnd.t13 gnd.t66 11.135
R289 gnd.t64 gnd.t87 11.135
R290 gnd.t62 gnd.t128 11.135
R291 gnd.t37 gnd.t121 11.135
R292 gnd.t33 gnd.t140 11.135
R293 gnd.t46 gnd.t163 11.135
R294 gnd.t42 gnd.t120 11.135
R295 gnd.t58 gnd.t126 11.135
R296 gnd.n91 gnd.n89 10.9075
R297 gnd.n73 gnd.n72 9.33321
R298 gnd.n172 gnd.n171 9.3005
R299 gnd.n171 gnd.n170 9.3005
R300 gnd.n217 gnd.n209 9.3005
R301 gnd.n209 gnd.n208 9.3005
R302 gnd.n238 gnd.n237 9.3005
R303 gnd.n237 gnd.n236 9.3005
R304 gnd.n271 gnd.n270 9.3005
R305 gnd.n270 gnd.n269 9.3005
R306 gnd.n162 gnd.t137 8.70236
R307 gnd.n170 gnd.t98 8.5297
R308 gnd.n106 gnd.n105 7.90638
R309 gnd.n4 gnd.t167 6.71549
R310 gnd.n35 gnd.t164 4.94919
R311 gnd.n115 gnd.n79 4.6505
R312 gnd.n93 gnd.n92 4.6505
R313 gnd.n94 gnd.n88 4.6505
R314 gnd.n96 gnd.n95 4.6505
R315 gnd.n98 gnd.n97 4.6505
R316 gnd.n99 gnd.n85 4.6505
R317 gnd.n101 gnd.n100 4.6505
R318 gnd.n102 gnd.n84 4.6505
R319 gnd.n104 gnd.n103 4.6505
R320 gnd.n106 gnd.n82 4.6505