* NGSPICE file created from device-complete.ext - technology: sky130A

.subckt device-complete gnd clk out_sigma vts ib out_buff vd out vpwr
X0 gnd.t82 gnd.t79 gnd.t81 gnd.t80 sky130_fd_pr__nfet_01v8 ad=1.45 pd=10.6 as=0 ps=0 w=5 l=1
X1 a_16688_5320# a_16854_3988# gnd.t36 sky130_fd_pr__res_xhigh_po_0p35 l=4.5
X2 buffer_0.a.t6 buffer_0.a.t4 buffer_0.a.t5 gnd.t124 sky130_fd_pr__nfet_01v8 ad=0.465 pd=3.62 as=0 ps=0 w=1.5 l=0.15
X3 sensor_0.a.t7 sensor_0.b.t20 gnd.t91 gnd.t17 sky130_fd_pr__nfet_01v8 ad=0.29 pd=2.58 as=0.29 ps=2.58 w=1 l=1
X4 sensor_0.b.t15 sensor_0.b.t14 gnd.t24 gnd.t23 sky130_fd_pr__nfet_01v8 ad=0.29 pd=2.58 as=0.29 ps=2.58 w=1 l=1
X5 vd.t71 buffer_0.b.t16 out_buff.t8 vd.t70 sky130_fd_pr__pfet_01v8 ad=2.17 pd=15.3 as=2.17 ps=15.3 w=15 l=1
X6 a_15868_2881# a_14791_2515# a_15706_2515# vpwr.t9 sky130_fd_pr__pfet_01v8_hvt ad=0.0567 pd=0.69 as=0.0588 ps=0.7 w=0.42 l=0.15
X7 gnd.t97 vpwr.t30 a_15403_2515# gnd.t96 sky130_fd_pr__nfet_01v8 ad=0.135 pd=1.15 as=0.0441 ps=0.63 w=0.42 l=0.15
X8 a_15546_5320# a_15712_3988# gnd.t42 sky130_fd_pr__res_xhigh_po_0p35 l=4.5
X9 vd.t16 buffer_0.a.t9 buffer_0.a.t10 vd.t15 sky130_fd_pr__pfet_01v8 ad=0.145 pd=1.29 as=0.145 ps=1.29 w=1 l=1
X10 gnd.t115 sensor_0.b.t21 vtd.t7 gnd.t21 sky130_fd_pr__nfet_01v8 ad=0.29 pd=2.58 as=0.29 ps=2.58 w=1 l=1
X11 a_15141_2515# a_14791_2515# a_15046_2515# vpwr.t8 sky130_fd_pr__pfet_01v8_hvt ad=0.0724 pd=0.765 as=0.0651 ps=0.73 w=0.42 l=0.15
X12 sensor_0.c sensor_0.c sensor_0.c vd.t41 sky130_fd_pr__pfet_01v8 ad=0.58 pd=4.58 as=4.64 ps=36.6 w=2 l=1
X13 buffer_0.d.t6 buffer_0.d.t4 buffer_0.d.t5 vd.t40 sky130_fd_pr__pfet_01v8 ad=4.35 pd=30.6 as=0 ps=0 w=15 l=1
X14 gnd.t26 ib.t3 ib.t4 gnd.t25 sky130_fd_pr__nfet_01v8 ad=0.145 pd=1.29 as=0.145 ps=1.29 w=1 l=1
X15 gnd.t78 gnd.t76 gnd.t77 gnd.t51 sky130_fd_pr__nfet_01v8 ad=0.29 pd=2.58 as=0 ps=0 w=1 l=1
X16 a_14550_5320# a_14716_3988# gnd.t103 sky130_fd_pr__res_xhigh_po_0p35 l=4.5
X17 ib.t2 ib.t0 ib.t1 gnd.t127 sky130_fd_pr__nfet_01v8 ad=0.29 pd=2.58 as=0 ps=0 w=1 l=1
X18 a_15815_2515# a_14625_2515# a_15706_2515# gnd.t107 sky130_fd_pr__nfet_01v8 ad=0.0669 pd=0.75 as=0.0711 ps=0.755 w=0.36 l=0.15
X19 vts.t16 vtd.t12 vtd.t13 vts.t15 sky130_fd_pr__pfet_01v8 ad=0.29 pd=2.29 as=0.29 ps=2.29 w=2 l=1
X20 gnd.t35 sensor_0.b.t12 sensor_0.b.t13 gnd.t9 sky130_fd_pr__nfet_01v8 ad=0.29 pd=2.58 as=0.29 ps=2.58 w=1 l=1
X21 a_16356_5320# a_16522_3988# gnd.t121 sky130_fd_pr__res_xhigh_po_0p35 l=4.5
X22 vtd.t9 vtd.t8 vts.t14 vts.t13 sky130_fd_pr__pfet_01v8 ad=0.29 pd=2.29 as=0.29 ps=2.29 w=2 l=1
X23 gnd.t75 gnd.t73 gnd.t74 gnd.t55 sky130_fd_pr__nfet_01v8 ad=0.29 pd=2.58 as=0 ps=0 w=1 l=1
X24 gnd.t29 sensor_0.b.t22 sensor_0.a.t6 gnd.t7 sky130_fd_pr__nfet_01v8 ad=0.29 pd=2.58 as=0.29 ps=2.58 w=1 l=1
X25 gnd.t72 gnd.t70 gnd.t71 gnd.t55 sky130_fd_pr__nfet_01v8 ad=0.29 pd=2.58 as=0 ps=0 w=1 l=1
X26 vtd.t6 sensor_0.b.t23 gnd.t30 gnd.t19 sky130_fd_pr__nfet_01v8 ad=0.29 pd=2.58 as=0.29 ps=2.58 w=1 l=1
X27 out_sigma.t1 a_16445_2515# vpwr.t11 vpwr.t10 sky130_fd_pr__pfet_01v8_hvt ad=0.26 pd=2.52 as=0.154 ps=1.34 w=1 l=0.15
X28 vts.t12 vtd.t22 vtd.t23 vts.t11 sky130_fd_pr__pfet_01v8 ad=0.29 pd=2.29 as=0.29 ps=2.29 w=2 l=1
X29 buffer_0.b.t6 buffer_0.b.t5 vd.t69 vd.t68 sky130_fd_pr__pfet_01v8 ad=0.145 pd=1.29 as=0.145 ps=1.29 w=1 l=1
X30 vtd.t5 sensor_0.b.t24 gnd.t39 gnd.t19 sky130_fd_pr__nfet_01v8 ad=0.29 pd=2.58 as=0.29 ps=2.58 w=1 l=1
X31 vpwr.t13 clk.t0 a_14625_2515# vpwr.t12 sky130_fd_pr__pfet_01v8_hvt ad=0.0864 pd=0.91 as=0.166 ps=1.8 w=0.64 l=0.15
X32 a_17020_5320# sigma-delta_0.x1.Q gnd.t128 sky130_fd_pr__res_xhigh_po_0p35 l=4.5
X33 vtd.t17 vtd.t16 vts.t10 vts.t9 sky130_fd_pr__pfet_01v8 ad=0.29 pd=2.29 as=0.29 ps=2.29 w=2 l=1
X34 vd.t67 buffer_0.b.t3 buffer_0.b.t4 vd.t66 sky130_fd_pr__pfet_01v8 ad=0.145 pd=1.29 as=0.145 ps=1.29 w=1 l=1
X35 a_15237_2515# a_14791_2515# a_15141_2515# gnd.t33 sky130_fd_pr__nfet_01v8 ad=0.14 pd=1.1 as=0.0594 ps=0.69 w=0.36 l=0.15
X36 a_15706_2515# a_14625_2515# a_15359_2757# vpwr.t19 sky130_fd_pr__pfet_01v8_hvt ad=0.0588 pd=0.7 as=0.129 ps=1.18 w=0.42 l=0.15
X37 vd.t46 a_6126_29386# gnd.t98 sky130_fd_pr__res_xhigh_po_0p35 l=5
X38 sensor_0.b.t19 vtd.t24 sensor_0.c vd.t72 sky130_fd_pr__pfet_01v8 ad=0.29 pd=2.29 as=0.58 ps=4.58 w=2 l=1
X39 a_15359_2757# a_15141_2515# vpwr.t7 vpwr.t6 sky130_fd_pr__pfet_01v8_hvt ad=0.129 pd=1.18 as=0.218 ps=2.2 w=0.84 l=0.15
X40 gnd.t88 clk.t1 a_14625_2515# gnd.t87 sky130_fd_pr__nfet_01v8 ad=0.0567 pd=0.69 as=0.109 ps=1.36 w=0.42 l=0.15
X41 vts.t8 vtd.t14 vtd.t15 vts.t7 sky130_fd_pr__pfet_01v8 ad=0.29 pd=2.29 as=0.58 ps=4.58 w=2 l=1
X42 vd.t65 buffer_0.b.t14 buffer_0.b.t15 vd.t64 sky130_fd_pr__pfet_01v8 ad=0.145 pd=1.29 as=0.145 ps=1.29 w=1 l=1
X43 gnd.t49 sensor_0.b.t10 sensor_0.b.t11 gnd.t9 sky130_fd_pr__nfet_01v8 ad=0.29 pd=2.58 as=0.29 ps=2.58 w=1 l=1
X44 vpwr.t15 a_15706_2515# a_15881_2489# vpwr.t14 sky130_fd_pr__pfet_01v8_hvt ad=0.213 pd=1.67 as=0.0567 ps=0.69 w=0.42 l=0.15
X45 buffer_0.a.t3 buffer_0.a.t2 buffer_0.a.t3 vd.t14 sky130_fd_pr__pfet_01v8 ad=0.145 pd=1.29 as=0 ps=0 w=1 l=1
X46 a_15046_2515# sigma-delta_0.x1.D vpwr.t21 vpwr.t20 sky130_fd_pr__pfet_01v8_hvt ad=0.0651 pd=0.73 as=0.109 ps=1.36 w=0.42 l=0.15
X47 vd.t56 sensor_0.a.t10 sensor_0.a.t11 vd.t55 sky130_fd_pr__pfet_01v8 ad=0.29 pd=2.29 as=0.58 ps=4.58 w=2 l=1
X48 buffer_0.a.t12 buffer_0.a.t11 vd.t13 vd.t12 sky130_fd_pr__pfet_01v8 ad=0.145 pd=1.29 as=0.145 ps=1.29 w=1 l=1
X49 a_15881_2489# a_15706_2515# a_16060_2515# gnd.t93 sky130_fd_pr__nfet_01v8 ad=0.109 pd=1.36 as=0.064 ps=0.725 w=0.42 l=0.15
X50 buffer_0.b.t0 vts.t25 buffer_0.c gnd.t101 sky130_fd_pr__nfet_01v8 ad=0.248 pd=1.83 as=0.248 ps=1.83 w=1.5 l=0.15
X51 sensor_0.b.t9 sensor_0.b.t8 gnd.t27 gnd.t23 sky130_fd_pr__nfet_01v8 ad=0.29 pd=2.58 as=0.29 ps=2.58 w=1 l=1
X52 a_14882_5320# a_15048_3988# gnd.t90 sky130_fd_pr__res_xhigh_po_0p35 l=4.5
X53 gnd.t114 sensor_0.b.t25 sensor_0.a.t5 gnd.t7 sky130_fd_pr__nfet_01v8 ad=0.29 pd=2.58 as=0.29 ps=2.58 w=1 l=1
X54 sigma-delta_0.x1.Q a_15881_2489# gnd.t5 gnd.t4 sky130_fd_pr__nfet_01v8 ad=0.169 pd=1.82 as=0.169 ps=1.82 w=0.65 l=0.15
X55 vts.t24 vts.t21 vts.t23 vts.t22 sky130_fd_pr__pfet_01v8 ad=0.58 pd=4.58 as=0 ps=0 w=2 l=1
X56 buffer_0.d.t1 buffer_0.a.t16 vd.t11 vd.t10 sky130_fd_pr__pfet_01v8 ad=2.17 pd=15.3 as=2.17 ps=15.3 w=15 l=1
X57 out_buff.t10 buffer_0.d.t11 sky130_fd_pr__cap_mim_m3_2 l=15 w=30
X58 a_15359_2757# a_15141_2515# gnd.t16 gnd.t15 sky130_fd_pr__nfet_01v8 ad=0.0999 pd=0.985 as=0.135 ps=1.15 w=0.64 l=0.15
X59 vpwr.t29 a_15359_2757# a_15249_2881# vpwr.t28 sky130_fd_pr__pfet_01v8_hvt ad=0.0703 pd=0.755 as=0.116 ps=0.97 w=0.42 l=0.15
X60 a_15706_2515# a_14791_2515# a_15359_2757# gnd.t32 sky130_fd_pr__nfet_01v8 ad=0.0711 pd=0.755 as=0.0999 ps=0.985 w=0.36 l=0.15
X61 gnd.t83 sensor_0.b.t26 vtd.t4 gnd.t21 sky130_fd_pr__nfet_01v8 ad=0.29 pd=2.58 as=0.29 ps=2.58 w=1 l=1
X62 vd.t37 vtd.t25 vts.t4 vd.t36 sky130_fd_pr__pfet_01v8 ad=0.58 pd=4.58 as=0.58 ps=4.58 w=2 l=5
X63 a_15214_5320# a_15380_3988# gnd.t48 sky130_fd_pr__res_xhigh_po_0p35 l=4.5
X64 vd.t35 vd.t32 vd.t34 vd.t33 sky130_fd_pr__pfet_01v8 ad=0.58 pd=4.58 as=0 ps=0 w=2 l=1
X65 gnd.t69 gnd.t67 gnd.t68 gnd.t51 sky130_fd_pr__nfet_01v8 ad=0.29 pd=2.58 as=0 ps=0 w=1 l=1
X66 sensor_0.c vtd.t26 sensor_0.b.t17 vd.t39 sky130_fd_pr__pfet_01v8 ad=0.29 pd=2.29 as=0.29 ps=2.29 w=2 l=1
X67 out_buff.t5 out_buff.t3 out_buff.t4 vd.t43 sky130_fd_pr__pfet_01v8 ad=4.35 pd=30.6 as=0 ps=0 w=15 l=1
X68 out_sigma.t0 a_16445_2515# gnd.t44 gnd.t43 sky130_fd_pr__nfet_01v8 ad=0.169 pd=1.82 as=0.1 ps=0.985 w=0.65 l=0.15
X69 vd.t31 vd.t28 vd.t30 vd.t29 sky130_fd_pr__pfet_01v8 ad=0.29 pd=2.58 as=0 ps=0 w=1 l=1
X70 sensor_0.a.t4 sensor_0.b.t27 gnd.t31 gnd.t17 sky130_fd_pr__nfet_01v8 ad=0.29 pd=2.58 as=0.29 ps=2.58 w=1 l=1
X71 sensor_0.a.t3 sensor_0.b.t28 gnd.t110 gnd.t17 sky130_fd_pr__nfet_01v8 ad=0.29 pd=2.58 as=0.29 ps=2.58 w=1 l=1
X72 sigma-delta_0.x1.Q a_15881_2489# vpwr.t5 vpwr.t4 sky130_fd_pr__pfet_01v8_hvt ad=0.28 pd=2.56 as=0.213 ps=1.67 w=1 l=0.15
X73 sensor_0.a.t9 sensor_0.a.t8 vd.t54 vd.t53 sky130_fd_pr__pfet_01v8 ad=0.58 pd=4.58 as=0.29 ps=2.29 w=2 l=1
X74 vd.t73 out.t3 sky130_fd_pr__cap_mim_m3_2 l=24.4 w=24.4
X75 a_16060_2515# vpwr.t31 gnd.t46 gnd.t45 sky130_fd_pr__nfet_01v8 ad=0.064 pd=0.725 as=0.125 ps=1.01 w=0.42 l=0.15
X76 gnd.t38 buffer_0.d.t12 out_buff.t0 gnd.t37 sky130_fd_pr__nfet_01v8 ad=0.725 pd=5.29 as=0.725 ps=5.29 w=5 l=1
X77 buffer_0.c out_buff.t11 buffer_0.a.t15 gnd.t118 sky130_fd_pr__nfet_01v8 ad=0.248 pd=1.83 as=0.248 ps=1.83 w=1.5 l=0.15
X78 a_16024_5320# a_16190_3988# gnd.t108 sky130_fd_pr__res_xhigh_po_0p35 l=4.5
X79 out_buff.t7 buffer_0.d.t13 gnd.t100 gnd.t99 sky130_fd_pr__nfet_01v8 ad=0.725 pd=5.29 as=0.725 ps=5.29 w=5 l=1
X80 sensor_0.b.t7 sensor_0.b.t6 gnd.t28 gnd.t23 sky130_fd_pr__nfet_01v8 ad=0.29 pd=2.58 as=0.29 ps=2.58 w=1 l=1
X81 vd.t27 vd.t25 vd.t27 vd.t26 sky130_fd_pr__pfet_01v8 ad=0.145 pd=1.29 as=0 ps=0 w=1 l=1
X82 gnd.t22 sensor_0.b.t29 vtd.t3 gnd.t21 sky130_fd_pr__nfet_01v8 ad=0.29 pd=2.58 as=0.29 ps=2.58 w=1 l=1
X83 gnd.t86 buffer_0.d.t9 buffer_0.d.t10 gnd.t85 sky130_fd_pr__nfet_01v8 ad=0.725 pd=5.29 as=0.725 ps=5.29 w=5 l=1
X84 a_16688_5320# a_16522_3988# gnd.t47 sky130_fd_pr__res_xhigh_po_0p35 l=4.5
X85 vd.t24 vd.t21 vd.t23 vd.t22 sky130_fd_pr__pfet_01v8 ad=0.58 pd=4.58 as=0 ps=0 w=2 l=1
X86 vd.t63 buffer_0.b.t7 buffer_0.b.t8 vd.t62 sky130_fd_pr__pfet_01v8 ad=0.145 pd=1.29 as=0.145 ps=1.29 w=1 l=1
X87 buffer_0.d.t8 buffer_0.d.t7 gnd.t123 gnd.t122 sky130_fd_pr__nfet_01v8 ad=0.725 pd=5.29 as=0.725 ps=5.29 w=5 l=1
X88 sensor_0.c sensor_0.a.t12 sensor_0.d vd.t52 sky130_fd_pr__pfet_01v8 ad=0.29 pd=2.29 as=0.29 ps=2.29 w=2 l=1
X89 sensor_0.d sensor_0.a.t13 sensor_0.c vd.t51 sky130_fd_pr__pfet_01v8 ad=0.29 pd=2.29 as=0.58 ps=4.58 w=2 l=1
X90 a_15546_5320# a_15380_3988# gnd.t89 sky130_fd_pr__res_xhigh_po_0p35 l=4.5
X91 buffer_0.d.t3 buffer_0.d.t2 buffer_0.d.t3 vd.t47 sky130_fd_pr__pfet_01v8 ad=2.17 pd=15.3 as=0 ps=0 w=15 l=1
X92 vpwr.t3 a_15881_2489# a_15868_2881# vpwr.t2 sky130_fd_pr__pfet_01v8_hvt ad=0.0819 pd=0.81 as=0.0567 ps=0.69 w=0.42 l=0.15
X93 gnd.t66 gnd.t64 gnd.t65 gnd.t55 sky130_fd_pr__nfet_01v8 ad=0.29 pd=2.58 as=0 ps=0 w=1 l=1
X94 gnd.t63 gnd.t61 gnd.t63 gnd.t62 sky130_fd_pr__nfet_01v8 ad=0.725 pd=5.29 as=0 ps=0 w=5 l=1
X95 gnd.t60 gnd.t58 gnd.t59 gnd.t51 sky130_fd_pr__nfet_01v8 ad=0.29 pd=2.58 as=0 ps=0 w=1 l=1
X96 gnd.t57 gnd.t54 gnd.t56 gnd.t55 sky130_fd_pr__nfet_01v8 ad=0.29 pd=2.58 as=0 ps=0 w=1 l=1
X97 buffer_0.c buffer_0.c buffer_0.c gnd.t113 sky130_fd_pr__nfet_01v8 ad=0.145 pd=1.29 as=1.08 ps=8.82 w=1 l=1
X98 vd.t20 vd.t17 vd.t19 vd.t18 sky130_fd_pr__pfet_01v8 ad=0.58 pd=4.58 as=0 ps=0 w=2 l=1
X99 a_15046_2515# sigma-delta_0.x1.D gnd.t120 gnd.t119 sky130_fd_pr__nfet_01v8 ad=0.066 pd=0.745 as=0.221 ps=1.89 w=0.42 l=0.15
X100 vtd.t11 vtd.t10 vts.t6 vts.t5 sky130_fd_pr__pfet_01v8 ad=0.58 pd=4.58 as=0.29 ps=2.29 w=2 l=1
X101 vd.t9 buffer_0.a.t17 buffer_0.d.t0 vd.t8 sky130_fd_pr__pfet_01v8 ad=2.17 pd=15.3 as=2.17 ps=15.3 w=15 l=1
X102 gnd.t10 sensor_0.b.t4 sensor_0.b.t5 gnd.t9 sky130_fd_pr__nfet_01v8 ad=0.29 pd=2.58 as=0.29 ps=2.58 w=1 l=1
X103 buffer_0.c ib.t5 gnd.t41 gnd.t40 sky130_fd_pr__nfet_01v8 ad=0.145 pd=1.29 as=0.145 ps=1.29 w=1 l=1
X104 vts.t3 vtd.t20 vtd.t21 vts.t2 sky130_fd_pr__pfet_01v8 ad=0.29 pd=2.29 as=0.29 ps=2.29 w=2 l=1
X105 buffer_0.b.t13 buffer_0.b.t11 buffer_0.b.t12 vd.t61 sky130_fd_pr__pfet_01v8 ad=0.29 pd=2.58 as=0 ps=0 w=1 l=1
X106 gnd.t8 sensor_0.b.t30 sensor_0.a.t2 gnd.t7 sky130_fd_pr__nfet_01v8 ad=0.29 pd=2.58 as=0.29 ps=2.58 w=1 l=1
X107 a_15141_2515# a_14625_2515# a_15046_2515# gnd.t106 sky130_fd_pr__nfet_01v8 ad=0.0594 pd=0.69 as=0.066 ps=0.745 w=0.36 l=0.15
X108 vtd.t2 sensor_0.b.t31 gnd.t94 gnd.t19 sky130_fd_pr__nfet_01v8 ad=0.29 pd=2.58 as=0.29 ps=2.58 w=1 l=1
X109 a_16356_5320# a_16190_3988# gnd.t92 sky130_fd_pr__res_xhigh_po_0p35 l=4.5
X110 vtd.t19 vtd.t18 vts.t1 vts.t0 sky130_fd_pr__pfet_01v8 ad=0.29 pd=2.29 as=0.29 ps=2.29 w=2 l=1
X111 vtd.t1 sensor_0.b.t32 gnd.t20 gnd.t19 sky130_fd_pr__nfet_01v8 ad=0.29 pd=2.58 as=0.29 ps=2.58 w=1 l=1
X112 vd.t1 a_15712_3988# sigma-delta_0.x1.D vd.t0 sky130_fd_pr__pfet_01v8 ad=0.87 pd=6.58 as=0.87 ps=6.58 w=3 l=0.15
X113 sensor_0.c vtd.t27 sensor_0.b.t16 vd.t38 sky130_fd_pr__pfet_01v8 ad=0.58 pd=4.58 as=0.29 ps=2.29 w=2 l=1
X114 a_15214_5320# a_15048_3988# gnd.t6 sky130_fd_pr__res_xhigh_po_0p35 l=4.5
X115 out_buff.t9 buffer_0.b.t17 vd.t60 vd.t59 sky130_fd_pr__pfet_01v8 ad=2.17 pd=15.3 as=2.17 ps=15.3 w=15 l=1
X116 buffer_0.a.t8 buffer_0.a.t7 vd.t7 vd.t6 sky130_fd_pr__pfet_01v8 ad=0.145 pd=1.29 as=0.145 ps=1.29 w=1 l=1
X117 vd.t74 out.t2 sky130_fd_pr__cap_mim_m3_2 l=24.4 w=24.4
X118 vd.t5 buffer_0.a.t13 buffer_0.a.t14 vd.t4 sky130_fd_pr__pfet_01v8 ad=0.145 pd=1.29 as=0.145 ps=1.29 w=1 l=1
X119 sensor_0.b.t18 vtd.t28 sensor_0.c vd.t48 sky130_fd_pr__pfet_01v8 ad=0.29 pd=2.29 as=0.29 ps=2.29 w=2 l=1
X120 a_17020_5320# a_16854_3988# gnd.t102 sky130_fd_pr__res_xhigh_po_0p35 l=4.5
X121 gnd.t116 sensor_0.b.t2 sensor_0.b.t3 gnd.t9 sky130_fd_pr__nfet_01v8 ad=0.29 pd=2.58 as=0.29 ps=2.58 w=1 l=1
X122 sensor_0.d vtd.t29 vd.t45 vd.t44 sky130_fd_pr__pfet_01v8 ad=0.58 pd=4.58 as=0.58 ps=4.58 w=2 l=1
X123 a_14791_2515# a_14625_2515# vpwr.t18 vpwr.t17 sky130_fd_pr__pfet_01v8_hvt ad=0.166 pd=1.8 as=0.0864 ps=0.91 w=0.64 l=0.15
X124 buffer_0.a.t1 buffer_0.a.t0 vd.t3 vd.t2 sky130_fd_pr__pfet_01v8 ad=0.145 pd=1.29 as=0.145 ps=1.29 w=1 l=1
X125 a_14882_5320# a_14716_3988# gnd.t84 sky130_fd_pr__res_xhigh_po_0p35 l=4.5
X126 gnd.t14 a_15712_3988# sigma-delta_0.x1.D gnd.t13 sky130_fd_pr__nfet_01v8 ad=0.29 pd=2.58 as=0.29 ps=2.58 w=1 l=0.15
X127 sensor_0.d sensor_0.a.t14 sensor_0.c vd.t50 sky130_fd_pr__pfet_01v8 ad=0.29 pd=2.29 as=0.29 ps=2.29 w=2 l=1
X128 vts.t20 vts.t17 vts.t19 vts.t18 sky130_fd_pr__pfet_01v8 ad=0.58 pd=4.58 as=0 ps=0 w=2 l=1
X129 a_14791_2515# a_14625_2515# gnd.t105 gnd.t104 sky130_fd_pr__nfet_01v8 ad=0.109 pd=1.36 as=0.0567 ps=0.69 w=0.42 l=0.15
X130 a_15249_2881# a_14625_2515# a_15141_2515# vpwr.t16 sky130_fd_pr__pfet_01v8_hvt ad=0.116 pd=0.97 as=0.0724 ps=0.765 w=0.42 l=0.15
X131 buffer_0.b.t10 buffer_0.b.t9 buffer_0.b.t10 gnd.t11 sky130_fd_pr__nfet_01v8 ad=0.248 pd=1.83 as=0 ps=0 w=1.5 l=0.15
X132 sensor_0.b.t1 sensor_0.b.t0 gnd.t117 gnd.t23 sky130_fd_pr__nfet_01v8 ad=0.29 pd=2.58 as=0.29 ps=2.58 w=1 l=1
X133 gnd.t109 sensor_0.b.t33 sensor_0.a.t1 gnd.t7 sky130_fd_pr__nfet_01v8 ad=0.29 pd=2.58 as=0.29 ps=2.58 w=1 l=1
X134 a_16024_5320# a_15712_3988# gnd.t125 sky130_fd_pr__res_xhigh_po_0p35 l=4.5
X135 vd.t75 out.t1 sky130_fd_pr__cap_mim_m3_2 l=24.4 w=24.4
X136 gnd.t112 out_sigma.t2 out.t0 gnd.t111 sky130_fd_pr__nfet_01v8 ad=0.58 pd=4.58 as=0.58 ps=4.58 w=2 l=0.15
X137 sensor_0.c sensor_0.a.t15 sensor_0.d vd.t49 sky130_fd_pr__pfet_01v8 ad=0.58 pd=4.58 as=0.29 ps=2.29 w=2 l=1
X138 gnd.t34 sensor_0.b.t34 vtd.t0 gnd.t21 sky130_fd_pr__nfet_01v8 ad=0.29 pd=2.58 as=0.29 ps=2.58 w=1 l=1
X139 gnd.t3 a_15881_2489# a_15815_2515# gnd.t2 sky130_fd_pr__nfet_01v8 ad=0.125 pd=1.01 as=0.0669 ps=0.75 w=0.42 l=0.15
X140 a_15403_2515# a_15359_2757# a_15237_2515# gnd.t126 sky130_fd_pr__nfet_01v8 ad=0.0441 pd=0.63 as=0.14 ps=1.1 w=0.42 l=0.15
X141 a_15249_2881# vpwr.t25 vpwr.t27 vpwr.t26 sky130_fd_pr__pfet_01v8_hvt ad=0.109 pd=1.36 as=0.0703 ps=0.755 w=0.42 l=0.15
X142 a_15881_2489# vpwr.t22 vpwr.t24 vpwr.t23 sky130_fd_pr__pfet_01v8_hvt ad=0.0567 pd=0.69 as=0.0819 ps=0.81 w=0.42 l=0.15
X143 gnd.t1 a_15881_2489# a_16445_2515# gnd.t0 sky130_fd_pr__nfet_01v8 ad=0.1 pd=0.985 as=0.109 ps=1.36 w=0.42 l=0.15
X144 a_14550_5320# out_buff.t6 gnd.t95 sky130_fd_pr__res_xhigh_po_0p35 l=4.5
X145 sensor_0.a.t0 sensor_0.b.t35 gnd.t18 gnd.t17 sky130_fd_pr__nfet_01v8 ad=0.29 pd=2.58 as=0.29 ps=2.58 w=1 l=1
X146 vpwr.t1 a_15881_2489# a_16445_2515# vpwr.t0 sky130_fd_pr__pfet_01v8_hvt ad=0.154 pd=1.34 as=0.166 ps=1.8 w=0.64 l=0.15
X147 gnd.t53 gnd.t50 gnd.t52 gnd.t51 sky130_fd_pr__nfet_01v8 ad=0.29 pd=2.58 as=0 ps=0 w=1 l=1
X148 buffer_0.b.t2 buffer_0.b.t1 vd.t58 vd.t57 sky130_fd_pr__pfet_01v8 ad=0.145 pd=1.29 as=0.145 ps=1.29 w=1 l=1
X149 a_15712_3988# gnd.t12 sky130_fd_pr__cap_mim_m3_1 l=27.2 w=27.2
X150 out_buff.t2 out_buff.t1 out_buff.t2 vd.t42 sky130_fd_pr__pfet_01v8 ad=2.17 pd=15.3 as=0 ps=0 w=15 l=1
R0 gnd.n150 gnd.n3 16393.5
R1 gnd.n67 gnd.n61 9068.36
R2 gnd.n150 gnd.n149 4031.02
R3 gnd.n61 gnd.n60 1756.55
R4 gnd.n153 gnd.n150 1057.91
R5 gnd.n61 gnd.t128 905.341
R6 gnd.t125 gnd.t42 718.744
R7 gnd.n191 gnd.n190 585
R8 gnd.n245 gnd.n244 585
R9 gnd.n247 gnd.n246 585
R10 gnd.n2 gnd.n1 585
R11 gnd.n8 gnd.n5 560.566
R12 gnd.n142 gnd.n139 547.013
R13 gnd.n55 gnd.n54 523.47
R14 gnd.n26 gnd.t43 389.486
R15 gnd.t128 gnd.t102 382.409
R16 gnd.t102 gnd.t36 382.409
R17 gnd.t36 gnd.t47 382.409
R18 gnd.t47 gnd.t121 382.409
R19 gnd.t121 gnd.t92 382.409
R20 gnd.t92 gnd.t108 382.409
R21 gnd.t108 gnd.t125 382.409
R22 gnd.t42 gnd.t89 382.409
R23 gnd.t89 gnd.t48 382.409
R24 gnd.t48 gnd.t6 382.409
R25 gnd.t6 gnd.t90 382.409
R26 gnd.t90 gnd.t84 382.409
R27 gnd.t84 gnd.t103 382.409
R28 gnd.t103 gnd.t95 382.409
R29 gnd.n6 gnd.t62 348.421
R30 gnd.n155 gnd.t23 334.93
R31 gnd.n253 gnd.t7 331.329
R32 gnd.t11 gnd.t122 305.267
R33 gnd.t9 gnd.n192 298.916
R34 gnd.t124 gnd.t113 263.712
R35 gnd.n193 gnd.t19 262.902
R36 gnd.n146 gnd.n145 256.471
R37 gnd.n54 gnd.n53 247.828
R38 gnd.n134 gnd.n129 242.918
R39 gnd.n221 gnd.t21 223.286
R40 gnd.n127 gnd.t85 217.363
R41 gnd.n80 gnd.t120 215.036
R42 gnd.n143 gnd.t25 214.167
R43 gnd.t119 gnd.t104 211.339
R44 gnd.n143 gnd.t40 198.185
R45 gnd.n127 gnd.t99 194.988
R46 gnd.t95 gnd.n33 193.508
R47 gnd.t55 gnd.n154 172.868
R48 gnd.n223 gnd.n220 163.766
R49 gnd.t0 gnd.t4 159.876
R50 gnd.t4 gnd.t93 159.876
R51 gnd.n255 gnd.n245 156.236
R52 gnd.n90 gnd.t5 154.317
R53 gnd.n202 gnd.n201 153.976
R54 gnd.t118 gnd.t124 153.434
R55 gnd.n154 gnd.n153 152.16
R56 gnd.n200 gnd.n195 150.648
R57 gnd.n202 gnd.n191 148.707
R58 gnd.n129 gnd.n8 147.294
R59 gnd.t126 gnd.t33 141.167
R60 gnd.t13 gnd.n26 134.364
R61 gnd.n145 gnd.n142 133.742
R62 gnd.n92 gnd.n91 128.757
R63 gnd.t51 gnd.n252 127.85
R64 gnd.t45 gnd.t2 126.71
R65 gnd.n221 gnd.t17 118.847
R66 gnd.n88 gnd.n87 116.754
R67 gnd.t15 gnd.t96 112.254
R68 gnd.n252 gnd.n251 110.743
R69 gnd.n119 gnd.n78 107.24
R70 gnd.n106 gnd.n84 107.24
R71 gnd.t80 gnd.t11 107.084
R72 gnd.n23 gnd.n22 104.427
R73 gnd.n87 gnd.t46 100.001
R74 gnd.n31 gnd.n30 98.6358
R75 gnd.t107 gnd.t32 92.6947
R76 gnd.n149 gnd.n148 86.3064
R77 gnd.t32 gnd.t15 84.1907
R78 gnd.t43 gnd.t0 82.4899
R79 gnd.t2 gnd.t107 81.6395
R80 gnd.t33 gnd.t106 81.6395
R81 gnd.t106 gnd.t119 80.7891
R82 gnd.n193 gnd.t9 79.2311
R83 gnd.t93 gnd.t45 77.3874
R84 gnd.n84 gnd.t97 72.8576
R85 gnd.n87 gnd.t3 70.0005
R86 gnd.t104 gnd.t87 69.6181
R87 gnd.n157 gnd.n2 65.8829
R88 gnd.n15 gnd.t79 65.675
R89 gnd.n9 gnd.t61 65.5414
R90 gnd.t7 gnd.n248 64.8256
R91 gnd.n6 gnd.t37 63.9308
R92 gnd.t96 gnd.t126 61.2297
R93 gnd.n84 gnd.t16 60.5809
R94 gnd.n91 gnd.t1 57.1434
R95 gnd.t87 gnd.n23 53.8718
R96 gnd.n255 gnd.n247 48.5652
R97 gnd.n78 gnd.t105 38.5719
R98 gnd.n78 gnd.t88 38.5719
R99 gnd.n237 gnd.t50 37.3602
R100 gnd.n240 gnd.t76 37.3602
R101 gnd.n243 gnd.t58 37.3602
R102 gnd.n162 gnd.t70 37.3602
R103 gnd.n165 gnd.t64 37.3602
R104 gnd.n168 gnd.t73 37.3602
R105 gnd.n132 gnd.t80 35.1621
R106 gnd.n108 gnd.n107 34.6358
R107 gnd.n108 gnd.n82 34.6358
R108 gnd.n112 gnd.n82 34.6358
R109 gnd.n113 gnd.n112 34.6358
R110 gnd.n114 gnd.n113 34.6358
R111 gnd.n100 gnd.n99 34.6358
R112 gnd.n101 gnd.n100 34.6358
R113 gnd.n101 gnd.n85 34.6358
R114 gnd.n105 gnd.n85 34.6358
R115 gnd.n95 gnd.n94 34.6358
R116 gnd.n96 gnd.n95 34.6358
R117 gnd.n118 gnd.n80 29.7417
R118 gnd.n94 gnd.n90 27.8593
R119 gnd.n91 gnd.t44 25.4291
R120 gnd.n53 gnd.t111 24.5503
R121 gnd.n120 gnd.n119 24.4919
R122 gnd.n44 gnd.n41 24.3682
R123 gnd.n199 gnd.n196 23.4095
R124 gnd.n60 gnd.t98 22.9965
R125 gnd.t98 gnd.n55 22.9965
R126 gnd.n119 gnd.n118 22.9652
R127 gnd.n149 gnd.t118 20.7778
R128 gnd.n159 gnd.t54 18.6812
R129 gnd.n234 gnd.t67 18.6809
R130 gnd.n96 gnd.n88 17.6946
R131 gnd.n217 gnd.t83 17.4089
R132 gnd.n187 gnd.t116 17.4089
R133 gnd.n228 gnd.t29 17.4084
R134 gnd.n226 gnd.t109 17.4084
R135 gnd.n225 gnd.t114 17.4084
R136 gnd.n228 gnd.t31 17.4084
R137 gnd.n226 gnd.t110 17.4084
R138 gnd.n225 gnd.t18 17.4084
R139 gnd.n217 gnd.t20 17.4079
R140 gnd.n187 gnd.t117 17.4079
R141 gnd.n230 gnd.t91 17.4074
R142 gnd.n230 gnd.t8 17.4074
R143 gnd.n204 gnd.t22 17.4069
R144 gnd.n204 gnd.t30 17.4055
R145 gnd.n233 gnd.t69 17.405
R146 gnd.n233 gnd.t68 17.405
R147 gnd.n236 gnd.t53 17.405
R148 gnd.n236 gnd.t52 17.405
R149 gnd.n239 gnd.t78 17.405
R150 gnd.n239 gnd.t77 17.405
R151 gnd.n242 gnd.t60 17.405
R152 gnd.n242 gnd.t59 17.405
R153 gnd.n158 gnd.t57 17.405
R154 gnd.n158 gnd.t56 17.405
R155 gnd.n161 gnd.t72 17.405
R156 gnd.n161 gnd.t71 17.405
R157 gnd.n164 gnd.t66 17.405
R158 gnd.n164 gnd.t65 17.405
R159 gnd.n167 gnd.t75 17.405
R160 gnd.n167 gnd.t74 17.405
R161 gnd.n21 gnd.t14 17.405
R162 gnd.n206 gnd.t94 17.4034
R163 gnd.n205 gnd.t115 17.4034
R164 gnd.n212 gnd.t39 17.4034
R165 gnd.n211 gnd.t34 17.4034
R166 gnd.n182 gnd.t27 17.4034
R167 gnd.n181 gnd.t49 17.4034
R168 gnd.n176 gnd.t28 17.4034
R169 gnd.n175 gnd.t10 17.4034
R170 gnd.n171 gnd.t24 17.4034
R171 gnd.n170 gnd.t35 17.4034
R172 gnd.n135 gnd.t41 17.4005
R173 gnd.n135 gnd.t26 17.4005
R174 gnd.n114 gnd.n80 14.6829
R175 gnd.n146 gnd.n134 13.5534
R176 gnd.n140 gnd.t127 12.7866
R177 gnd.n132 gnd.t101 11.1883
R178 gnd.n92 gnd.n90 10.9075
R179 gnd.n253 gnd.t51 10.8047
R180 gnd.n21 gnd.n20 9.33321
R181 gnd.n157 gnd.n156 9.3005
R182 gnd.n156 gnd.n155 9.3005
R183 gnd.n202 gnd.n194 9.3005
R184 gnd.n194 gnd.n193 9.3005
R185 gnd.n223 gnd.n222 9.3005
R186 gnd.n222 gnd.n221 9.3005
R187 gnd.n255 gnd.n254 9.3005
R188 gnd.n254 gnd.n253 9.3005
R189 gnd.n49 gnd.t112 8.70236
R190 gnd.n107 gnd.n106 7.90638
R191 gnd.n155 gnd.t55 7.20328
R192 gnd.n15 gnd.t82 6.44128
R193 gnd.n126 gnd.n125 5.41306
R194 gnd.n137 gnd.n136 5.41306
R195 gnd.n116 gnd.n80 4.6505
R196 gnd.n94 gnd.n93 4.6505
R197 gnd.n95 gnd.n89 4.6505
R198 gnd.n97 gnd.n96 4.6505
R199 gnd.n99 gnd.n98 4.6505
R200 gnd.n100 gnd.n86 4.6505
R201 gnd.n102 gnd.n101 4.6505
R202 gnd.n103 gnd.n85 4.6505
R203 gnd.n105 gnd.n104 4.6505
R204 gnd.n107 gnd.n83 4.6505
R205 gnd.n109 gnd.n108 4.6505
R206 gnd.n110 gnd.n82 4.6505
R207 gnd.n112 gnd.n111 4.6505
R208 gnd.n113 gnd.n81 4.6505
R209 gnd.n115 gnd.n114 4.6505
R210 gnd.n118 gnd.n117 4.6505
R211 gnd.n119 gnd.n79 4.6505
R212 gnd.n76 gnd.n75 4.5005
R213 gnd.n77 gnd.n75 4.5005
R214 gnd gnd.n123 3.79922
R215 gnd.n12 gnd.t100 3.4805
R216 gnd.n12 gnd.t86 3.4805
R217 gnd.n10 gnd.t63 3.4805
R218 gnd.n10 gnd.t38 3.4805
R219 gnd.n16 gnd.t123 3.4805
R220 gnd.n16 gnd.t81 3.4805
R221 gnd.n11 gnd.n9 3.21916
R222 gnd.n17 gnd.n15 2.95318
R223 gnd.n74 gnd.n73 2.6505
R224 gnd.n99 gnd.n88 2.63579
R225 gnd.n49 gnd 2.5773
R226 gnd.n125 gnd.n124 2.43634
R227 gnd.n121 gnd.n75 2.25328
R228 gnd gnd.n0 2.00418
R229 gnd.n106 gnd.n105 1.88285
R230 gnd.n74 gnd.t12 1.47915
R231 gnd.n137 gnd.n135 1.41862
R232 gnd.n124 gnd.n74 1.22706
R233 gnd gnd.n0 1.2022
R234 gnd.n23 gnd 0.928252
R235 gnd.n136 gnd 0.793114
R236 gnd.n259 gnd.n258 0.685777
R237 gnd.n14 gnd.n11 0.6455
R238 gnd.n18 gnd.n17 0.62925
R239 gnd.n68 gnd.n32 0.54125
R240 gnd.n32 gnd.n31 0.541165
R241 gnd.n210 gnd.n204 0.447415
R242 gnd.n216 gnd.n210 0.438
R243 gnd.n218 gnd.n216 0.438
R244 gnd.n126 gnd.n19 0.425505
R245 gnd.n180 gnd.n174 0.375501
R246 gnd.n219 gnd.n218 0.375501
R247 gnd.n186 gnd.n180 0.3755
R248 gnd.n188 gnd.n186 0.3755
R249 gnd.n227 gnd.n225 0.373217
R250 gnd.n229 gnd.n227 0.371401
R251 gnd.n231 gnd.n229 0.369555
R252 gnd.n52 gnd.n48 0.366293
R253 gnd.n39 gnd.n38 0.365897
R254 gnd.n53 gnd.n39 0.365897
R255 gnd.n48 gnd.n47 0.365897
R256 gnd.n66 gnd.n65 0.347558
R257 gnd.n65 gnd.n64 0.347269
R258 gnd.n232 gnd.n231 0.338503
R259 gnd.n189 gnd.n188 0.330858
R260 gnd.n189 gnd.n169 0.290469
R261 gnd.n219 gnd.n203 0.281539
R262 gnd.n224 gnd.n219 0.245825
R263 gnd.n257 gnd.n232 0.244548
R264 gnd.n259 gnd.n0 0.230614
R265 gnd.n232 gnd.n224 0.180349
R266 gnd.n203 gnd.n189 0.156539
R267 gnd.n93 gnd.n92 0.144332
R268 gnd.n35 gnd.n34 0.1305
R269 gnd.t98 gnd.n35 0.1305
R270 gnd.n57 gnd.n56 0.1305
R271 gnd.t98 gnd.n57 0.1305
R272 gnd.n93 gnd.n89 0.120292
R273 gnd.n97 gnd.n89 0.120292
R274 gnd.n98 gnd.n97 0.120292
R275 gnd.n98 gnd.n86 0.120292
R276 gnd.n102 gnd.n86 0.120292
R277 gnd.n103 gnd.n102 0.120292
R278 gnd.n104 gnd.n103 0.120292
R279 gnd.n104 gnd.n83 0.120292
R280 gnd.n109 gnd.n83 0.120292
R281 gnd.n110 gnd.n109 0.120292
R282 gnd.n111 gnd.n110 0.120292
R283 gnd.n111 gnd.n81 0.120292
R284 gnd.n115 gnd.n81 0.120292
R285 gnd.n116 gnd.n115 0.120292
R286 gnd.n117 gnd.n116 0.120292
R287 gnd.n117 gnd.n79 0.120292
R288 gnd.n28 gnd.n27 0.10956
R289 gnd.t13 gnd.n28 0.10956
R290 gnd.n29 gnd.t13 0.10956
R291 gnd.n30 gnd.n29 0.10956
R292 gnd.n43 gnd.n42 0.10956
R293 gnd.n46 gnd.n45 0.10956
R294 gnd.t111 gnd.n46 0.10956
R295 gnd.n44 gnd.n43 0.109135
R296 gnd.n66 gnd.n63 0.0849523
R297 gnd.n63 gnd.n62 0.0845034
R298 gnd.n260 gnd.n259 0.0772045
R299 gnd.n260 gnd 0.0755
R300 gnd.n79 gnd.n76 0.0734167
R301 gnd.n235 gnd.n234 0.073412
R302 gnd.n160 gnd.n159 0.0734113
R303 gnd.n19 gnd.n18 0.063
R304 gnd.n161 gnd.n160 0.0610469
R305 gnd.n162 gnd.n161 0.0610469
R306 gnd.n164 gnd.n163 0.0610469
R307 gnd.n165 gnd.n164 0.0610469
R308 gnd.n167 gnd.n166 0.0610469
R309 gnd.n168 gnd.n167 0.0610469
R310 gnd.n236 gnd.n235 0.0610469
R311 gnd.n237 gnd.n236 0.0610469
R312 gnd.n239 gnd.n238 0.0610469
R313 gnd.n240 gnd.n239 0.0610469
R314 gnd.n242 gnd.n241 0.0610469
R315 gnd.n243 gnd.n242 0.0610469
R316 gnd.n256 gnd.n243 0.0573558
R317 gnd.n169 gnd.n168 0.0573547
R318 gnd.n257 gnd.n256 0.0464211
R319 gnd.n142 gnd.n141 0.0431634
R320 gnd.n141 gnd.n140 0.0431634
R321 gnd.n163 gnd.n162 0.0426875
R322 gnd.n166 gnd.n165 0.0426875
R323 gnd.n238 gnd.n237 0.0426875
R324 gnd.n241 gnd.n240 0.0426875
R325 gnd.n25 gnd.n24 0.0425017
R326 gnd.n26 gnd.n25 0.0425017
R327 gnd.n258 gnd 0.0395625
R328 gnd.n8 gnd.n7 0.0388129
R329 gnd.n7 gnd.n6 0.0388129
R330 gnd gnd.n260 0.0345909
R331 gnd.n77 gnd 0.0330521
R332 gnd.n124 gnd 0.03175
R333 gnd.n159 gnd.n158 0.031274
R334 gnd.n234 gnd.n233 0.0312734
R335 gnd.n122 gnd.n76 0.0265417
R336 gnd.n41 gnd.n40 0.0264102
R337 gnd.n120 gnd 0.0226354
R338 gnd.n147 gnd.n146 0.0215341
R339 gnd.n148 gnd.n147 0.0215341
R340 gnd.n18 gnd.n14 0.01675
R341 gnd.n218 gnd.n217 0.0153409
R342 gnd.n215 gnd.n213 0.0129048
R343 gnd.n122 gnd.n121 0.0114272
R344 gnd.n209 gnd.n207 0.0114167
R345 gnd.n121 gnd.n120 0.0113582
R346 gnd.n123 gnd.n75 0.0110001
R347 gnd.n134 gnd.n133 0.00984699
R348 gnd.n133 gnd.n132 0.00984699
R349 gnd.n201 gnd.n200 0.0092427
R350 gnd.n200 gnd.n199 0.0092427
R351 gnd.n250 gnd.n249 0.00883856
R352 gnd.n251 gnd.n250 0.00883856
R353 gnd.n152 gnd.n151 0.00883856
R354 gnd.n153 gnd.n152 0.00883856
R355 gnd.n71 gnd.n21 0.00867757
R356 gnd.n188 gnd.n187 0.00792873
R357 gnd.n37 gnd.n36 0.00762598
R358 gnd.n55 gnd.n37 0.00762598
R359 gnd.n59 gnd.n58 0.00762598
R360 gnd.n60 gnd.n59 0.00762598
R361 gnd.n5 gnd.n4 0.007537
R362 gnd.n139 gnd.n138 0.007537
R363 gnd.n145 gnd.n144 0.00701261
R364 gnd.n144 gnd.n143 0.00701261
R365 gnd.n129 gnd.n128 0.00701261
R366 gnd.n128 gnd.n127 0.00701261
R367 gnd.n73 gnd.n71 0.00634112
R368 gnd gnd.n77 0.00570833
R369 gnd.n185 gnd.n183 0.00546432
R370 gnd.n131 gnd.n130 0.00517349
R371 gnd.n132 gnd.n131 0.00517349
R372 gnd.n172 gnd.n170 0.00502806
R373 gnd.n177 gnd.n175 0.00502806
R374 gnd.n183 gnd.n181 0.00502805
R375 gnd.n207 gnd.n205 0.00502803
R376 gnd.n213 gnd.n211 0.00502803
R377 gnd.n198 gnd.n197 0.00487141
R378 gnd.n199 gnd.n198 0.00487141
R379 gnd.n69 gnd.n68 0.00441022
R380 gnd.n172 gnd.n171 0.00402807
R381 gnd.n177 gnd.n176 0.00402806
R382 gnd.n183 gnd.n182 0.00402806
R383 gnd.n207 gnd.n206 0.00402804
R384 gnd.n213 gnd.n212 0.00402803
R385 gnd.n179 gnd.n177 0.00397623
R386 gnd.n70 gnd.n69 0.00391284
R387 gnd.n71 gnd.n70 0.00391159
R388 gnd.n14 gnd.n13 0.00371923
R389 gnd.n11 gnd.n10 0.00294771
R390 gnd.n17 gnd.n16 0.00294771
R391 gnd.n174 gnd.n172 0.00248813
R392 gnd.n258 gnd.n257 0.00245312
R393 gnd.n52 gnd.n51 0.00236777
R394 gnd.n13 gnd.n12 0.00217489
R395 gnd.t111 gnd.n44 0.00192099
R396 gnd.n51 gnd.n50 0.00186816
R397 gnd.n256 gnd.n255 0.00152216
R398 gnd.n169 gnd.n157 0.00152195
R399 gnd.n145 gnd.n137 0.00148887
R400 gnd.n129 gnd.n126 0.00148887
R401 gnd.n215 gnd.n214 0.00138337
R402 gnd.n209 gnd.n208 0.00138109
R403 gnd.n185 gnd.n184 0.00134613
R404 gnd.n179 gnd.n178 0.00134049
R405 gnd.n174 gnd.n173 0.001335
R406 gnd.n50 gnd.n49 0.00124275
R407 gnd.n229 gnd.n228 0.00121065
R408 gnd.n227 gnd.n226 0.001204
R409 gnd.n67 gnd.n66 0.00104118
R410 gnd.n123 gnd.n122 0.00100955
R411 gnd.n68 gnd.n67 0.00100261
R412 gnd.n231 gnd.n230 0.00100079
R413 gnd.n53 gnd.n52 0.00100039
R414 gnd.n203 gnd.n202 0.000522345
R415 gnd.n224 gnd.n223 0.000522345
R416 gnd.n73 gnd.n72 0.00051897
R417 gnd.n216 gnd.n215 0.000501021
R418 gnd.n210 gnd.n209 0.000501021
R419 gnd.n180 gnd.n179 0.000500672
R420 gnd.n186 gnd.n185 0.000500672
R421 buffer_0.a.n6 buffer_0.a.t17 377.647
R422 buffer_0.a.n6 buffer_0.a.t16 376.93
R423 buffer_0.a.n13 buffer_0.a.t4 314.055
R424 buffer_0.a.t0 buffer_0.a.n6 42.2586
R425 buffer_0.a.n7 buffer_0.a.t0 40.2461
R426 buffer_0.a.n1 buffer_0.a.t2 39.5847
R427 buffer_0.a.n11 buffer_0.a.t11 39.5292
R428 buffer_0.a.n9 buffer_0.a.t9 39.5292
R429 buffer_0.a.n8 buffer_0.a.t7 39.5292
R430 buffer_0.a.n7 buffer_0.a.t13 39.5292
R431 buffer_0.a.n2 buffer_0.a.t3 28.5655
R432 buffer_0.a.n2 buffer_0.a.t12 28.5655
R433 buffer_0.a.n3 buffer_0.a.t14 28.5655
R434 buffer_0.a.n3 buffer_0.a.t1 28.5655
R435 buffer_0.a.n4 buffer_0.a.t10 28.5655
R436 buffer_0.a.n4 buffer_0.a.t8 28.5655
R437 buffer_0.a.n13 buffer_0.a.t6 13.2078
R438 buffer_0.a.n0 buffer_0.a.t15 13.2005
R439 buffer_0.a.n0 buffer_0.a.t5 13.2005
R440 buffer_0.a.n5 buffer_0.a.n3 1.62643
R441 buffer_0.a.n10 buffer_0.a.n5 1.438
R442 buffer_0.a.n10 buffer_0.a.n9 1.06207
R443 buffer_0.a.n12 buffer_0.a.n11 1.01015
R444 buffer_0.a.n8 buffer_0.a.n7 0.717388
R445 buffer_0.a.n9 buffer_0.a.n8 0.717388
R446 buffer_0.a buffer_0.a.n0 0.677588
R447 buffer_0.a buffer_0.a.n1 0.45343