* NGSPICE file created from ampop.ext - technology: sky130A

.subckt sky130_fd_pr__cap_mim_m3_1_2NYK3R c1_n2150_n2100# m3_n2250_n2200# VSUBS
X0 c1_n2150_n2100# m3_n2250_n2200# sky130_fd_pr__cap_mim_m3_1 l=2.1e+07u w=2.1e+07u
C0 c1_n2150_n2100# m3_n2250_n2200# 37.10fF
C1 c1_n2150_n2100# VSUBS 2.04fF
C2 m3_n2250_n2200# VSUBS 10.60fF
.ends

.subckt sky130_fd_pr__pfet_01v8_G8TFUZ a_n158_n300# w_n296_n519# a_n100_n397# a_100_n300#
+ VSUBS
X0 a_100_n300# a_n100_n397# a_n158_n300# w_n296_n519# sky130_fd_pr__pfet_01v8 ad=8.7e+11p pd=6.58e+06u as=8.7e+11p ps=6.58e+06u w=3e+06u l=1e+06u
C0 w_n296_n519# a_100_n300# 0.25fF
C1 a_n100_n397# w_n296_n519# 0.41fF
C2 a_n158_n300# a_100_n300# 0.17fF
C3 a_n100_n397# a_n158_n300# 0.01fF
C4 a_n100_n397# a_100_n300# 0.01fF
C5 w_n296_n519# a_n158_n300# 0.23fF
C6 a_100_n300# VSUBS 0.05fF
C7 a_n158_n300# VSUBS 0.14fF
C8 a_n100_n397# VSUBS 0.29fF
C9 w_n296_n519# VSUBS 2.67fF
.ends

.subckt sky130_fd_pr__pfet_01v8_G8PDUZ a_n158_n300# w_n296_n519# a_n100_n397# a_100_n300#
+ VSUBS
X0 a_100_n300# a_n100_n397# a_n158_n300# w_n296_n519# sky130_fd_pr__pfet_01v8 ad=8.7e+11p pd=6.58e+06u as=8.7e+11p ps=6.58e+06u w=3e+06u l=1e+06u
C0 a_n158_n300# w_n296_n519# 0.43fF
C1 a_100_n300# a_n100_n397# 0.01fF
C2 a_100_n300# a_n158_n300# 0.17fF
C3 a_100_n300# w_n296_n519# 0.16fF
C4 a_n158_n300# a_n100_n397# 0.01fF
C5 w_n296_n519# a_n100_n397# 0.42fF
C6 a_100_n300# VSUBS 0.14fF
C7 a_n158_n300# VSUBS 0.05fF
C8 a_n100_n397# VSUBS 0.29fF
C9 w_n296_n519# VSUBS 2.67fF
.ends

.subckt sky130_fd_pr__nfet_01v8_SXTBPF a_n260_n274# a_100_n100# a_n158_n100# a_n100_n188#
X0 a_100_n100# a_n100_n188# a_n158_n100# a_n260_n274# sky130_fd_pr__nfet_01v8 ad=2.9e+11p pd=2.58e+06u as=2.9e+11p ps=2.58e+06u w=1e+06u l=1e+06u
C0 a_100_n100# a_n158_n100# 0.06fF
C1 a_100_n100# a_n260_n274# 0.13fF
C2 a_n158_n100# a_n260_n274# 0.16fF
C3 a_n100_n188# a_n260_n274# 0.82fF
.ends

.subckt sky130_fd_pr__pfet_01v8_G8TPYT a_n158_n600# w_n296_n819# a_n100_n697# a_100_n600#
+ VSUBS
X0 a_100_n600# a_n100_n697# a_n158_n600# w_n296_n819# sky130_fd_pr__pfet_01v8 ad=1.74e+12p pd=1.258e+07u as=1.74e+12p ps=1.258e+07u w=6e+06u l=1e+06u
C0 a_n158_n600# w_n296_n819# 0.44fF
C1 a_100_n600# a_n100_n697# 0.02fF
C2 a_100_n600# a_n158_n600# 0.34fF
C3 a_100_n600# w_n296_n819# 0.48fF
C4 a_n158_n600# a_n100_n697# 0.02fF
C5 w_n296_n819# a_n100_n697# 0.47fF
C6 a_100_n600# VSUBS 0.08fF
C7 a_n158_n600# VSUBS 0.26fF
C8 a_n100_n697# VSUBS 0.25fF
C9 w_n296_n819# VSUBS 4.09fF
.ends

.subckt sky130_fd_pr__nfet_01v8_XABGW3 a_n229_n538# a_n287_n450# a_n389_n624# a_229_n450#
+ a_29_n538# a_n29_n450#
X0 a_229_n450# a_29_n538# a_n29_n450# a_n389_n624# sky130_fd_pr__nfet_01v8 ad=1.305e+12p pd=9.58e+06u as=1.305e+12p ps=9.58e+06u w=4.5e+06u l=1e+06u
X1 a_n29_n450# a_n229_n538# a_n287_n450# a_n389_n624# sky130_fd_pr__nfet_01v8 ad=0p pd=0u as=1.305e+12p ps=9.58e+06u w=4.5e+06u l=1e+06u
C0 a_n29_n450# a_29_n538# 0.02fF
C1 a_n229_n538# a_n287_n450# 0.02fF
C2 a_229_n450# a_29_n538# 0.02fF
C3 a_n229_n538# a_n29_n450# 0.02fF
C4 a_n287_n450# a_n29_n450# 0.11fF
C5 a_229_n450# a_n229_n538# 0.02fF
C6 a_229_n450# a_n287_n450# 0.03fF
C7 a_229_n450# a_n29_n450# 0.10fF
C8 a_n229_n538# a_29_n538# 0.11fF
C9 a_n287_n450# a_29_n538# 0.02fF
C10 a_229_n450# a_n389_n624# 0.30fF
C11 a_n29_n450# a_n389_n624# 0.20fF
C12 a_n287_n450# a_n389_n624# 0.40fF
C13 a_29_n538# a_n389_n624# 0.83fF
C14 a_n229_n538# a_n389_n624# 0.83fF
.ends

.subckt sky130_fd_pr__pfet_01v8_8ALGB7 a_n287_n750# w_n683_n969# a_29_n847# a_229_n750#
+ a_n545_n750# a_n229_n847# a_287_n847# a_n29_n750# a_487_n750# a_n487_n847# VSUBS
X0 a_n29_n750# a_n229_n847# a_n287_n750# w_n683_n969# sky130_fd_pr__pfet_01v8 ad=2.175e+12p pd=1.558e+07u as=2.175e+12p ps=1.558e+07u w=7.5e+06u l=1e+06u
X1 a_n287_n750# a_n487_n847# a_n545_n750# w_n683_n969# sky130_fd_pr__pfet_01v8 ad=0p pd=0u as=2.175e+12p ps=1.558e+07u w=7.5e+06u l=1e+06u
X2 a_487_n750# a_287_n847# a_229_n750# w_n683_n969# sky130_fd_pr__pfet_01v8 ad=2.175e+12p pd=1.558e+07u as=2.175e+12p ps=1.558e+07u w=7.5e+06u l=1e+06u
X3 a_229_n750# a_29_n847# a_n29_n750# w_n683_n969# sky130_fd_pr__pfet_01v8 ad=0p pd=0u as=0p ps=0u w=7.5e+06u l=1e+06u
C0 a_287_n847# a_n287_n750# 0.02fF
C1 a_229_n750# a_n545_n750# 0.02fF
C2 a_287_n847# a_n545_n750# 0.02fF
C3 w_n683_n969# a_n229_n847# 0.33fF
C4 a_n287_n750# a_n229_n847# 0.03fF
C5 a_487_n750# a_29_n847# 0.03fF
C6 a_n545_n750# a_n229_n847# 0.03fF
C7 a_229_n750# a_n29_n750# 0.18fF
C8 a_487_n750# a_n487_n847# 0.02fF
C9 a_287_n847# a_n29_n750# 0.03fF
C10 a_29_n847# w_n683_n969# 0.32fF
C11 a_287_n847# a_229_n750# 0.04fF
C12 a_n487_n847# w_n683_n969# 0.37fF
C13 a_n287_n750# a_29_n847# 0.03fF
C14 a_487_n750# w_n683_n969# 0.29fF
C15 a_n29_n750# a_n229_n847# 0.03fF
C16 a_29_n847# a_n545_n750# 0.02fF
C17 a_n287_n750# a_n487_n847# 0.02fF
C18 a_487_n750# a_n287_n750# 0.02fF
C19 a_229_n750# a_n229_n847# 0.03fF
C20 a_n487_n847# a_n545_n750# 0.03fF
C21 a_487_n750# a_n545_n750# 0.01fF
C22 a_n287_n750# w_n683_n969# 0.18fF
C23 a_n29_n750# a_29_n847# 0.03fF
C24 a_n545_n750# w_n683_n969# 0.67fF
C25 a_n29_n750# a_n487_n847# 0.03fF
C26 a_229_n750# a_29_n847# 0.03fF
C27 a_n287_n750# a_n545_n750# 0.18fF
C28 a_287_n847# a_29_n847# 0.11fF
C29 a_487_n750# a_n29_n750# 0.05fF
C30 a_229_n750# a_n487_n847# 0.02fF
C31 a_487_n750# a_229_n750# 0.16fF
C32 a_n29_n750# w_n683_n969# 0.14fF
C33 a_287_n847# a_487_n750# 0.03fF
C34 a_29_n847# a_n229_n847# 0.11fF
C35 a_n287_n750# a_n29_n750# 0.16fF
C36 a_229_n750# w_n683_n969# 0.15fF
C37 a_n487_n847# a_n229_n847# 0.11fF
C38 a_287_n847# w_n683_n969# 0.34fF
C39 a_n29_n750# a_n545_n750# 0.05fF
C40 a_n287_n750# a_229_n750# 0.05fF
C41 a_487_n750# a_n229_n847# 0.02fF
C42 a_487_n750# VSUBS 0.10fF
C43 a_229_n750# VSUBS 0.04fF
C44 a_n29_n750# VSUBS 0.01fF
C45 a_n287_n750# VSUBS 0.02fF
C46 a_287_n847# VSUBS 0.22fF
C47 a_29_n847# VSUBS 0.17fF
C48 a_n229_n847# VSUBS 0.17fF
C49 a_n487_n847# VSUBS 0.21fF
C50 w_n683_n969# VSUBS 9.51fF
.ends

.subckt ota ib in1 in2 out m1_n20_5200# m1_420_6300# vd m1_1300_5200# vs
XXCC out m1_1300_5200# vs sky130_fd_pr__cap_mim_m3_1_2NYK3R
XXM1 m1_n20_5200# m1_420_6300# in1 m1_420_6300# vs sky130_fd_pr__pfet_01v8_G8TFUZ
XXM2 m1_420_6300# m1_420_6300# in2 m1_1300_5200# vs sky130_fd_pr__pfet_01v8_G8PDUZ
XXM4 vs m1_1300_5200# vs m1_n20_5200# sky130_fd_pr__nfet_01v8_SXTBPF
XXM5 ib vd ib vd vs sky130_fd_pr__pfet_01v8_G8TPYT
Xsky130_fd_pr__pfet_01v8_G8TPYT_0 m1_420_6300# vd ib vd vs sky130_fd_pr__pfet_01v8_G8TPYT
XXM7 m1_1300_5200# out vs out m1_1300_5200# vs sky130_fd_pr__nfet_01v8_XABGW3
XXM8 out vd ib out vd ib ib vd vd ib vs sky130_fd_pr__pfet_01v8_8ALGB7
Xsky130_fd_pr__nfet_01v8_SXTBPF_0 vs vs m1_n20_5200# m1_n20_5200# sky130_fd_pr__nfet_01v8_SXTBPF
C0 ib in1 0.13fF
C1 m1_420_6300# ib 0.22fF
C2 in2 ib 0.07fF
C3 out m1_420_6300# 0.01fF
C4 vd ib 2.46fF
C5 out in2 0.02fF
C6 m1_n20_5200# m1_1300_5200# 0.24fF
C7 out vd 0.58fF
C8 m1_n20_5200# in1 0.25fF
C9 m1_1300_5200# in1 0.02fF
C10 m1_n20_5200# m1_420_6300# 0.52fF
C11 m1_1300_5200# m1_420_6300# 0.32fF
C12 out ib 0.59fF
C13 m1_n20_5200# in2 0.53fF
C14 m1_1300_5200# in2 0.16fF
C15 m1_n20_5200# vd 0.01fF
C16 m1_1300_5200# vd 0.23fF
C17 m1_420_6300# in1 0.20fF
C18 in2 in1 0.15fF
C19 m1_420_6300# in2 0.49fF
C20 vd in1 0.08fF
C21 m1_420_6300# vd 0.65fF
C22 m1_1300_5200# ib 0.23fF
C23 vd in2 0.08fF
C24 m1_n20_5200# out 0.05fF
C25 out m1_1300_5200# 1.30fF
C26 m1_n20_5200# vs 2.54fF
C27 vd vs 17.49fF
C28 m1_420_6300# vs 4.95fF
C29 ib vs 2.51fF
C30 in2 vs 0.85fF
C31 in1 vs 0.43fF
C32 out vs 5.43fF
C33 m1_1300_5200# vs 13.94fF
.ends

.subckt sky130_fd_pr__nfet_01v8_CL66SD a_1003_n100# a_803_n188# a_n2035_n188# a_n2711_n274#
+ a_n29_n100# a_487_n100# a_1835_n188# a_2293_n100# a_n229_n188# a_n1835_n100# a_287_n188#
+ a_n1003_n188# a_2093_n188# a_n803_n100# a_1519_n100# a_n2093_n100# a_1261_n100#
+ a_1319_n188# a_n2293_n188# a_n1319_n100# a_1061_n188# a_n287_n100# a_n1061_n100#
+ a_n1519_n188# a_745_n100# a_n487_n188# a_n1261_n188# a_2551_n100# a_545_n188# a_2351_n188#
+ a_1777_n100# a_n2609_n100# a_n2351_n100# a_1577_n188# a_229_n100# a_n1577_n100#
+ a_n2551_n188# a_2035_n100# a_n545_n100# a_n1777_n188# a_29_n188# a_n745_n188#
X0 a_n287_n100# a_n487_n188# a_n545_n100# a_n2711_n274# sky130_fd_pr__nfet_01v8 ad=2.9e+11p pd=2.58e+06u as=2.9e+11p ps=2.58e+06u w=1e+06u l=1e+06u
X1 a_n2351_n100# a_n2551_n188# a_n2609_n100# a_n2711_n274# sky130_fd_pr__nfet_01v8 ad=2.9e+11p pd=2.58e+06u as=2.9e+11p ps=2.58e+06u w=1e+06u l=1e+06u
X2 a_1777_n100# a_1577_n188# a_1519_n100# a_n2711_n274# sky130_fd_pr__nfet_01v8 ad=2.9e+11p pd=2.58e+06u as=2.9e+11p ps=2.58e+06u w=1e+06u l=1e+06u
X3 a_2293_n100# a_2093_n188# a_2035_n100# a_n2711_n274# sky130_fd_pr__nfet_01v8 ad=2.9e+11p pd=2.58e+06u as=2.9e+11p ps=2.58e+06u w=1e+06u l=1e+06u
X4 a_1003_n100# a_803_n188# a_745_n100# a_n2711_n274# sky130_fd_pr__nfet_01v8 ad=2.9e+11p pd=2.58e+06u as=2.9e+11p ps=2.58e+06u w=1e+06u l=1e+06u
X5 a_n1577_n100# a_n1777_n188# a_n1835_n100# a_n2711_n274# sky130_fd_pr__nfet_01v8 ad=2.9e+11p pd=2.58e+06u as=2.9e+11p ps=2.58e+06u w=1e+06u l=1e+06u
X6 a_n2093_n100# a_n2293_n188# a_n2351_n100# a_n2711_n274# sky130_fd_pr__nfet_01v8 ad=2.9e+11p pd=2.58e+06u as=0p ps=0u w=1e+06u l=1e+06u
X7 a_n803_n100# a_n1003_n188# a_n1061_n100# a_n2711_n274# sky130_fd_pr__nfet_01v8 ad=2.9e+11p pd=2.58e+06u as=2.9e+11p ps=2.58e+06u w=1e+06u l=1e+06u
X8 a_745_n100# a_545_n188# a_487_n100# a_n2711_n274# sky130_fd_pr__nfet_01v8 ad=0p pd=0u as=2.9e+11p ps=2.58e+06u w=1e+06u l=1e+06u
X9 a_n29_n100# a_n229_n188# a_n287_n100# a_n2711_n274# sky130_fd_pr__nfet_01v8 ad=2.9e+11p pd=2.58e+06u as=0p ps=0u w=1e+06u l=1e+06u
X10 a_229_n100# a_29_n188# a_n29_n100# a_n2711_n274# sky130_fd_pr__nfet_01v8 ad=2.9e+11p pd=2.58e+06u as=0p ps=0u w=1e+06u l=1e+06u
X11 a_1519_n100# a_1319_n188# a_1261_n100# a_n2711_n274# sky130_fd_pr__nfet_01v8 ad=0p pd=0u as=2.9e+11p ps=2.58e+06u w=1e+06u l=1e+06u
X12 a_487_n100# a_287_n188# a_229_n100# a_n2711_n274# sky130_fd_pr__nfet_01v8 ad=0p pd=0u as=0p ps=0u w=1e+06u l=1e+06u
X13 a_n1319_n100# a_n1519_n188# a_n1577_n100# a_n2711_n274# sky130_fd_pr__nfet_01v8 ad=2.9e+11p pd=2.58e+06u as=0p ps=0u w=1e+06u l=1e+06u
X14 a_n545_n100# a_n745_n188# a_n803_n100# a_n2711_n274# sky130_fd_pr__nfet_01v8 ad=0p pd=0u as=0p ps=0u w=1e+06u l=1e+06u
X15 a_n1835_n100# a_n2035_n188# a_n2093_n100# a_n2711_n274# sky130_fd_pr__nfet_01v8 ad=0p pd=0u as=0p ps=0u w=1e+06u l=1e+06u
X16 a_1261_n100# a_1061_n188# a_1003_n100# a_n2711_n274# sky130_fd_pr__nfet_01v8 ad=0p pd=0u as=0p ps=0u w=1e+06u l=1e+06u
X17 a_2035_n100# a_1835_n188# a_1777_n100# a_n2711_n274# sky130_fd_pr__nfet_01v8 ad=0p pd=0u as=0p ps=0u w=1e+06u l=1e+06u
X18 a_n1061_n100# a_n1261_n188# a_n1319_n100# a_n2711_n274# sky130_fd_pr__nfet_01v8 ad=0p pd=0u as=0p ps=0u w=1e+06u l=1e+06u
X19 a_2551_n100# a_2351_n188# a_2293_n100# a_n2711_n274# sky130_fd_pr__nfet_01v8 ad=2.9e+11p pd=2.58e+06u as=0p ps=0u w=1e+06u l=1e+06u
C0 a_n803_n100# a_n1061_n100# 0.06fF
C1 a_1777_n100# a_1519_n100# 0.06fF
C2 a_2093_n188# a_1835_n188# 0.10fF
C3 a_n745_n188# a_n1003_n188# 0.10fF
C4 a_2293_n100# a_2551_n100# 0.06fF
C5 a_n1577_n100# a_n1835_n100# 0.06fF
C6 a_1003_n100# a_1261_n100# 0.06fF
C7 a_n229_n188# a_n487_n188# 0.10fF
C8 a_487_n100# a_229_n100# 0.06fF
C9 a_n29_n100# a_n287_n100# 0.06fF
C10 a_n2351_n100# a_n2609_n100# 0.06fF
C11 a_1577_n188# a_1835_n188# 0.10fF
C12 a_n1777_n188# a_n2035_n188# 0.10fF
C13 a_1519_n100# a_1261_n100# 0.06fF
C14 a_n1261_n188# a_n1519_n188# 0.10fF
C15 a_n2093_n100# a_n1835_n100# 0.06fF
C16 a_n1061_n100# a_n1319_n100# 0.06fF
C17 a_1577_n188# a_1319_n188# 0.10fF
C18 a_n2293_n188# a_n2551_n188# 0.10fF
C19 a_n229_n188# a_29_n188# 0.10fF
C20 a_n29_n100# a_229_n100# 0.06fF
C21 a_n1577_n100# a_n1319_n100# 0.06fF
C22 a_n2293_n188# a_n2035_n188# 0.10fF
C23 a_287_n188# a_545_n188# 0.10fF
C24 a_1777_n100# a_2035_n100# 0.06fF
C25 a_n2351_n100# a_n2093_n100# 0.06fF
C26 a_287_n188# a_29_n188# 0.10fF
C27 a_n1777_n188# a_n1519_n188# 0.10fF
C28 a_n545_n100# a_n287_n100# 0.06fF
C29 a_745_n100# a_1003_n100# 0.06fF
C30 a_487_n100# a_745_n100# 0.06fF
C31 a_1061_n188# a_1319_n188# 0.10fF
C32 a_2293_n100# a_2035_n100# 0.06fF
C33 a_n803_n100# a_n545_n100# 0.06fF
C34 a_2351_n188# a_2093_n188# 0.10fF
C35 a_1061_n188# a_803_n188# 0.10fF
C36 a_n745_n188# a_n487_n188# 0.10fF
C37 a_803_n188# a_545_n188# 0.10fF
C38 a_n1261_n188# a_n1003_n188# 0.10fF
C39 a_2551_n100# a_n2711_n274# 0.11fF
C40 a_2293_n100# a_n2711_n274# 0.05fF
C41 a_2035_n100# a_n2711_n274# 0.05fF
C42 a_1777_n100# a_n2711_n274# 0.04fF
C43 a_1519_n100# a_n2711_n274# 0.04fF
C44 a_1261_n100# a_n2711_n274# 0.04fF
C45 a_1003_n100# a_n2711_n274# 0.04fF
C46 a_745_n100# a_n2711_n274# 0.04fF
C47 a_487_n100# a_n2711_n274# 0.04fF
C48 a_229_n100# a_n2711_n274# 0.04fF
C49 a_n29_n100# a_n2711_n274# 0.04fF
C50 a_n287_n100# a_n2711_n274# 0.04fF
C51 a_n545_n100# a_n2711_n274# 0.04fF
C52 a_n803_n100# a_n2711_n274# 0.04fF
C53 a_n1061_n100# a_n2711_n274# 0.04fF
C54 a_n1319_n100# a_n2711_n274# 0.04fF
C55 a_n1577_n100# a_n2711_n274# 0.04fF
C56 a_n1835_n100# a_n2711_n274# 0.04fF
C57 a_n2093_n100# a_n2711_n274# 0.05fF
C58 a_n2351_n100# a_n2711_n274# 0.05fF
C59 a_n2609_n100# a_n2711_n274# 0.13fF
C60 a_2351_n188# a_n2711_n274# 0.63fF
C61 a_2093_n188# a_n2711_n274# 0.55fF
C62 a_1835_n188# a_n2711_n274# 0.55fF
C63 a_1577_n188# a_n2711_n274# 0.55fF
C64 a_1319_n188# a_n2711_n274# 0.54fF
C65 a_1061_n188# a_n2711_n274# 0.54fF
C66 a_803_n188# a_n2711_n274# 0.54fF
C67 a_545_n188# a_n2711_n274# 0.54fF
C68 a_287_n188# a_n2711_n274# 0.54fF
C69 a_29_n188# a_n2711_n274# 0.54fF
C70 a_n229_n188# a_n2711_n274# 0.54fF
C71 a_n487_n188# a_n2711_n274# 0.54fF
C72 a_n745_n188# a_n2711_n274# 0.54fF
C73 a_n1003_n188# a_n2711_n274# 0.54fF
C74 a_n1261_n188# a_n2711_n274# 0.54fF
C75 a_n1519_n188# a_n2711_n274# 0.54fF
C76 a_n1777_n188# a_n2711_n274# 0.55fF
C77 a_n2035_n188# a_n2711_n274# 0.55fF
C78 a_n2293_n188# a_n2711_n274# 0.55fF
C79 a_n2551_n188# a_n2711_n274# 0.63fF
.ends

.subckt sky130_fd_pr__pfet_01v8_BLSBYX w_n296_n319# a_n100_n197# a_100_n100# a_n158_n100#
+ VSUBS
X0 a_100_n100# a_n100_n197# a_n158_n100# w_n296_n319# sky130_fd_pr__pfet_01v8 ad=2.9e+11p pd=2.58e+06u as=2.9e+11p ps=2.58e+06u w=1e+06u l=1e+06u
C0 a_n158_n100# a_100_n100# 0.06fF
C1 a_n158_n100# w_n296_n319# 0.16fF
C2 w_n296_n319# a_100_n100# 0.07fF
C3 w_n296_n319# a_n100_n197# 0.29fF
C4 a_100_n100# VSUBS 0.06fF
C5 a_n158_n100# VSUBS 0.03fF
C6 a_n100_n197# VSUBS 0.36fF
C7 w_n296_n319# VSUBS 1.66fF
.ends

.subckt sky130_fd_pr__pfet_01v8_8L4H97 a_158_n197# a_n416_n100# w_n812_n319# a_n358_n197#
+ a_358_n100# a_416_n197# a_n100_n197# a_100_n100# a_n674_n100# a_n158_n100# a_n616_n197#
+ a_616_n100# VSUBS
X0 a_n158_n100# a_n358_n197# a_n416_n100# w_n812_n319# sky130_fd_pr__pfet_01v8 ad=2.9e+11p pd=2.58e+06u as=2.9e+11p ps=2.58e+06u w=1e+06u l=1e+06u
X1 a_100_n100# a_n100_n197# a_n158_n100# w_n812_n319# sky130_fd_pr__pfet_01v8 ad=2.9e+11p pd=2.58e+06u as=0p ps=0u w=1e+06u l=1e+06u
X2 a_616_n100# a_416_n197# a_358_n100# w_n812_n319# sky130_fd_pr__pfet_01v8 ad=2.9e+11p pd=2.58e+06u as=2.9e+11p ps=2.58e+06u w=1e+06u l=1e+06u
X3 a_358_n100# a_158_n197# a_100_n100# w_n812_n319# sky130_fd_pr__pfet_01v8 ad=0p pd=0u as=0p ps=0u w=1e+06u l=1e+06u
X4 a_n416_n100# a_n616_n197# a_n674_n100# w_n812_n319# sky130_fd_pr__pfet_01v8 ad=0p pd=0u as=2.9e+11p ps=2.58e+06u w=1e+06u l=1e+06u
C0 a_n616_n197# a_n358_n197# 0.11fF
C1 a_158_n197# a_n100_n197# 0.11fF
C2 w_n812_n319# a_358_n100# 0.05fF
C3 a_n674_n100# a_n416_n100# 0.03fF
C4 a_n158_n100# a_100_n100# 0.03fF
C5 w_n812_n319# a_158_n197# 0.36fF
C6 a_n358_n197# a_n100_n197# 0.11fF
C7 w_n812_n319# a_n674_n100# 0.09fF
C8 a_n358_n197# w_n812_n319# 0.36fF
C9 w_n812_n319# a_416_n197# 0.39fF
C10 w_n812_n319# a_100_n100# 0.05fF
C11 a_n158_n100# a_n416_n100# 0.03fF
C12 a_n616_n197# w_n812_n319# 0.39fF
C13 a_358_n100# a_100_n100# 0.03fF
C14 a_616_n100# w_n812_n319# 0.07fF
C15 a_416_n197# a_158_n197# 0.11fF
C16 a_n158_n100# w_n812_n319# 0.05fF
C17 w_n812_n319# a_n416_n100# 0.05fF
C18 a_616_n100# a_358_n100# 0.03fF
C19 w_n812_n319# a_n100_n197# 0.36fF
C20 a_616_n100# VSUBS 0.02fF
C21 a_358_n100# VSUBS 0.01fF
C22 a_n416_n100# VSUBS 0.01fF
C23 a_n674_n100# VSUBS 0.02fF
C24 a_416_n197# VSUBS 0.27fF
C25 a_158_n197# VSUBS 0.22fF
C26 a_n100_n197# VSUBS 0.22fF
C27 a_n358_n197# VSUBS 0.22fF
C28 a_n616_n197# VSUBS 0.27fF
C29 w_n812_n319# VSUBS 4.34fF
.ends

.subckt sky130_fd_pr__pfet_01v8_8C4HA7 a_158_n197# a_n416_n100# w_n812_n319# a_n358_n197#
+ a_358_n100# a_416_n197# a_n100_n197# a_100_n100# a_n674_n100# a_n158_n100# a_n616_n197#
+ a_616_n100# VSUBS
X0 a_n158_n100# a_n358_n197# a_n416_n100# w_n812_n319# sky130_fd_pr__pfet_01v8 ad=2.9e+11p pd=2.58e+06u as=2.9e+11p ps=2.58e+06u w=1e+06u l=1e+06u
X1 a_100_n100# a_n100_n197# a_n158_n100# w_n812_n319# sky130_fd_pr__pfet_01v8 ad=2.9e+11p pd=2.58e+06u as=0p ps=0u w=1e+06u l=1e+06u
X2 a_616_n100# a_416_n197# a_358_n100# w_n812_n319# sky130_fd_pr__pfet_01v8 ad=2.9e+11p pd=2.58e+06u as=2.9e+11p ps=2.58e+06u w=1e+06u l=1e+06u
X3 a_358_n100# a_158_n197# a_100_n100# w_n812_n319# sky130_fd_pr__pfet_01v8 ad=0p pd=0u as=0p ps=0u w=1e+06u l=1e+06u
X4 a_n416_n100# a_n616_n197# a_n674_n100# w_n812_n319# sky130_fd_pr__pfet_01v8 ad=0p pd=0u as=2.9e+11p ps=2.58e+06u w=1e+06u l=1e+06u
C0 a_158_n197# w_n812_n319# 0.36fF
C1 a_n416_n100# a_n158_n100# 0.03fF
C2 a_n616_n197# a_n358_n197# 0.11fF
C3 a_100_n100# w_n812_n319# 0.05fF
C4 a_n674_n100# w_n812_n319# 0.09fF
C5 a_158_n197# a_416_n197# 0.11fF
C6 a_100_n100# a_n158_n100# 0.03fF
C7 w_n812_n319# a_n158_n100# 0.05fF
C8 a_n100_n197# a_n358_n197# 0.11fF
C9 a_616_n100# w_n812_n319# 0.07fF
C10 a_416_n197# w_n812_n319# 0.39fF
C11 a_100_n100# a_358_n100# 0.03fF
C12 a_n616_n197# w_n812_n319# 0.39fF
C13 a_358_n100# w_n812_n319# 0.05fF
C14 a_158_n197# a_n100_n197# 0.11fF
C15 a_n358_n197# w_n812_n319# 0.36fF
C16 a_616_n100# a_358_n100# 0.03fF
C17 a_n674_n100# a_n416_n100# 0.03fF
C18 a_n100_n197# w_n812_n319# 0.36fF
C19 a_n416_n100# w_n812_n319# 0.05fF
C20 a_616_n100# VSUBS 0.02fF
C21 a_358_n100# VSUBS 0.01fF
C22 a_n416_n100# VSUBS 0.01fF
C23 a_n674_n100# VSUBS 0.02fF
C24 a_416_n197# VSUBS 0.27fF
C25 a_158_n197# VSUBS 0.22fF
C26 a_n100_n197# VSUBS 0.22fF
C27 a_n358_n197# VSUBS 0.22fF
C28 a_n616_n197# VSUBS 0.27fF
C29 w_n812_n319# VSUBS 4.34fF
.ends

.subckt sky130_fd_pr__nfet_01v8_GVTB53 a_n29_n100# a_n229_n188# a_n389_n274# a_n287_n100#
+ a_229_n100# a_29_n188#
X0 a_n29_n100# a_n229_n188# a_n287_n100# a_n389_n274# sky130_fd_pr__nfet_01v8 ad=2.9e+11p pd=2.58e+06u as=2.9e+11p ps=2.58e+06u w=1e+06u l=1e+06u
X1 a_229_n100# a_29_n188# a_n29_n100# a_n389_n274# sky130_fd_pr__nfet_01v8 ad=2.9e+11p pd=2.58e+06u as=0p ps=0u w=1e+06u l=1e+06u
C0 a_n29_n100# a_229_n100# 0.06fF
C1 a_n29_n100# a_n287_n100# 0.06fF
C2 a_29_n188# a_n229_n188# 0.10fF
C3 a_229_n100# a_n389_n274# 0.13fF
C4 a_n29_n100# a_n389_n274# 0.08fF
C5 a_n287_n100# a_n389_n274# 0.15fF
C6 a_29_n188# a_n389_n274# 0.70fF
C7 a_n229_n188# a_n389_n274# 0.70fF
.ends

.subckt sky130_fd_pr__pfet_01v8_8LYGA7 a_158_n197# a_n416_n100# w_n812_n319# a_n358_n197#
+ a_358_n100# a_416_n197# a_n100_n197# a_100_n100# a_n674_n100# a_n158_n100# a_n616_n197#
+ a_616_n100# VSUBS
X0 a_n158_n100# a_n358_n197# a_n416_n100# w_n812_n319# sky130_fd_pr__pfet_01v8 ad=2.9e+11p pd=2.58e+06u as=2.9e+11p ps=2.58e+06u w=1e+06u l=1e+06u
X1 a_100_n100# a_n100_n197# a_n158_n100# w_n812_n319# sky130_fd_pr__pfet_01v8 ad=2.9e+11p pd=2.58e+06u as=0p ps=0u w=1e+06u l=1e+06u
X2 a_616_n100# a_416_n197# a_358_n100# w_n812_n319# sky130_fd_pr__pfet_01v8 ad=2.9e+11p pd=2.58e+06u as=2.9e+11p ps=2.58e+06u w=1e+06u l=1e+06u
X3 a_358_n100# a_158_n197# a_100_n100# w_n812_n319# sky130_fd_pr__pfet_01v8 ad=0p pd=0u as=0p ps=0u w=1e+06u l=1e+06u
X4 a_n416_n100# a_n616_n197# a_n674_n100# w_n812_n319# sky130_fd_pr__pfet_01v8 ad=0p pd=0u as=2.9e+11p ps=2.58e+06u w=1e+06u l=1e+06u
C0 a_n100_n197# a_158_n197# 0.11fF
C1 a_n100_n197# w_n812_n319# 0.25fF
C2 a_n616_n197# a_n358_n197# 0.11fF
C3 a_100_n100# a_n158_n100# 0.03fF
C4 a_n674_n100# w_n812_n319# 0.12fF
C5 a_100_n100# w_n812_n319# 0.04fF
C6 a_n158_n100# w_n812_n319# 0.04fF
C7 a_158_n197# w_n812_n319# 0.25fF
C8 a_n416_n100# a_n674_n100# 0.03fF
C9 a_616_n100# w_n812_n319# 0.06fF
C10 a_416_n197# a_158_n197# 0.11fF
C11 a_n416_n100# a_n158_n100# 0.03fF
C12 a_416_n197# w_n812_n319# 0.27fF
C13 a_n416_n100# w_n812_n319# 0.04fF
C14 a_n100_n197# a_n358_n197# 0.11fF
C15 a_100_n100# a_358_n100# 0.03fF
C16 a_n358_n197# w_n812_n319# 0.25fF
C17 a_358_n100# w_n812_n319# 0.04fF
C18 a_616_n100# a_358_n100# 0.03fF
C19 a_n616_n197# w_n812_n319# 0.30fF
C20 a_616_n100# VSUBS 0.03fF
C21 a_358_n100# VSUBS 0.02fF
C22 a_100_n100# VSUBS 0.01fF
C23 a_n158_n100# VSUBS 0.01fF
C24 a_n416_n100# VSUBS 0.01fF
C25 a_n674_n100# VSUBS 0.01fF
C26 a_416_n197# VSUBS 0.30fF
C27 a_158_n197# VSUBS 0.24fF
C28 a_n100_n197# VSUBS 0.24fF
C29 a_n358_n197# VSUBS 0.24fF
C30 a_n616_n197# VSUBS 0.29fF
C31 w_n812_n319# VSUBS 4.13fF
.ends

.subckt buffer vd ib out in gnd net4
Xsky130_fd_pr__nfet_01v8_CL66SD_0 net2 out out gnd net2 net3 out net4 out net4 in
+ out out net4 net3 net2 net4 in out net4 out net4 net2 in net4 in out net3 in in
+ net4 net3 net4 in net4 net3 in net2 net3 in out in sky130_fd_pr__nfet_01v8_CL66SD
Xsky130_fd_pr__nfet_01v8_CL66SD_1 gnd net1 net1 gnd gnd gnd net1 out net1 out net1
+ net1 net1 out gnd gnd out net1 net1 net1 net1 net1 gnd net1 net1 net1 net1 gnd net1
+ net1 net1 gnd net1 net1 out gnd net1 gnd gnd net1 net1 net1 sky130_fd_pr__nfet_01v8_CL66SD
Xsky130_fd_pr__pfet_01v8_BLSBYX_0 vd net2 net2 vd gnd sky130_fd_pr__pfet_01v8_BLSBYX
Xsky130_fd_pr__pfet_01v8_8L4H97_0 net2 net1 vd net2 vd net2 net2 net1 vd vd net2 net1
+ gnd sky130_fd_pr__pfet_01v8_8L4H97
Xsky130_fd_pr__pfet_01v8_BLSBYX_1 vd net3 net3 vd gnd sky130_fd_pr__pfet_01v8_BLSBYX
Xsky130_fd_pr__pfet_01v8_8C4HA7_0 net3 out vd net3 vd net3 net3 out vd vd net3 out
+ gnd sky130_fd_pr__pfet_01v8_8C4HA7
Xsky130_fd_pr__nfet_01v8_GVTB53_0 gnd ib gnd ib net4 ib sky130_fd_pr__nfet_01v8_GVTB53
Xsky130_fd_pr__pfet_01v8_8LYGA7_0 net2 net1 vd net2 vd net2 net2 net1 vd vd net2 net1
+ gnd sky130_fd_pr__pfet_01v8_8LYGA7
Xsky130_fd_pr__pfet_01v8_8LYGA7_1 net3 out vd net3 vd net3 net3 out vd vd net3 out
+ gnd sky130_fd_pr__pfet_01v8_8LYGA7
C0 vd ib 0.03fF
C1 net3 net2 0.62fF
C2 net3 in 1.39fF
C3 net1 net3 0.48fF
C4 net3 vd 3.49fF
C5 net4 net2 1.85fF
C6 net4 in 2.12fF
C7 net1 net4 0.18fF
C8 out net3 2.32fF
C9 in net2 0.55fF
C10 net1 net2 2.18fF
C11 net1 in 0.84fF
C12 net4 vd 0.11fF
C13 vd net2 4.39fF
C14 net4 out 2.09fF
C15 net3 ib 0.01fF
C16 in vd 0.83fF
C17 net1 vd 2.06fF
C18 out net2 2.12fF
C19 out in 1.38fF
C20 net1 out 1.65fF
C21 net4 ib 0.03fF
C22 out vd 1.81fF
C23 in ib 0.10fF
C24 net1 ib 0.04fF
C25 net4 net3 2.20fF
C26 net4 gnd 1.44fF
C27 ib gnd 2.15fF
C28 out gnd 9.20fF
C29 net3 gnd 3.38fF
C30 vd gnd 18.62fF
C31 net1 gnd 17.79fF
C32 net2 gnd 3.33fF
C33 in gnd 6.22fF
.ends

.subckt ampop ib in1 out in2 vs vd
Xota_0 ib in1 in2 ota_0/out ota_0/m1_n20_5200# ota_0/m1_420_6300# vd ota_0/m1_1300_5200#
+ vs ota
Xbuffer_0 vd ib out ota_0/out vs buffer_0/net4 buffer
X0 ota_0/m1_1300_5200# in2.t0 ota_0/m1_420_6300# ota_0/m1_420_6300# sky130_fd_pr__pfet_01v8 ad=8.7e+11p pd=6.58e+06u as=3.48e+12p ps=2.574e+07u w=0u l=0u
X1 buffer_0/net2 out.t4 buffer_0/net4 vs sky130_fd_pr__nfet_01v8 ad=1.45e+12p pd=1.29e+07u as=3.19e+12p ps=2.838e+07u w=0u l=0u
X2 buffer_0/net2 out.t8 buffer_0/net4 vs sky130_fd_pr__nfet_01v8 ad=0p pd=0u as=0p ps=0u w=0u l=0u
X3 buffer_0/net1.t15 buffer_0/net1.t14 vs vs sky130_fd_pr__nfet_01v8 ad=0p pd=0u as=5.365e+12p ps=4.57e+07u w=0u l=0u
X4 out buffer_0/net1.t22 vs vs sky130_fd_pr__nfet_01v8 ad=1.45e+12p pd=1.29e+07u as=0p ps=0u w=0u l=0u
X5 ota_0/m1_420_6300# in1.t0 ota_0/m1_n20_5200# ota_0/m1_420_6300# sky130_fd_pr__pfet_01v8 ad=0p pd=0u as=8.7e+11p ps=6.58e+06u w=0u l=0u
X6 ota_0/out ib.t6 vd vd sky130_fd_pr__pfet_01v8 ad=4.35e+12p pd=3.116e+07u as=1.4065e+13p ps=1.0802e+08u w=0u l=0u
X7 vs ib.t0 ib.t1 vs sky130_fd_pr__nfet_01v8 ad=0p pd=0u as=0p ps=0u w=0u l=0u
X8 vs buffer_0/net1.t12 buffer_0/net1.t13 vs sky130_fd_pr__nfet_01v8 ad=0p pd=0u as=0p ps=0u w=0u l=0u
X9 buffer_0/net4 out.t0 buffer_0/net2 vs sky130_fd_pr__nfet_01v8 ad=0p pd=0u as=0p ps=0u w=0u l=0u
X10 buffer_0/net4 out.t6 buffer_0/net2 vs sky130_fd_pr__nfet_01v8 ad=0p pd=0u as=0p ps=0u w=0u l=0u
X11 vs buffer_0/net1.t21 out vs sky130_fd_pr__nfet_01v8 ad=0p pd=0u as=0p ps=0u w=0u l=0u
X12 buffer_0/net2 out.t2 buffer_0/net4 vs sky130_fd_pr__nfet_01v8 ad=0p pd=0u as=0p ps=0u w=0u l=0u
X13 out buffer_0/net1.t20 vs vs sky130_fd_pr__nfet_01v8 ad=0p pd=0u as=0p ps=0u w=0u l=0u
X14 buffer_0/net1.t19 buffer_0/net1.t18 vs vs sky130_fd_pr__nfet_01v8 ad=0p pd=0u as=0p ps=0u w=0u l=0u
X15 buffer_0/net1.t17 buffer_0/net1.t16 vs vs sky130_fd_pr__nfet_01v8 ad=0p pd=0u as=0p ps=0u w=0u l=0u
X16 vd ib.t4 ota_0/m1_420_6300# vd sky130_fd_pr__pfet_01v8 ad=0p pd=0u as=0p ps=0u w=0u l=0u
X17 buffer_0/net4 out.t7 buffer_0/net2 vs sky130_fd_pr__nfet_01v8 ad=0p pd=0u as=0p ps=0u w=0u l=0u
X18 buffer_0/net2 out.t9 buffer_0/net4 vs sky130_fd_pr__nfet_01v8 ad=0p pd=0u as=0p ps=0u w=0u l=0u
X19 vs buffer_0/net1.t24 out vs sky130_fd_pr__nfet_01v8 ad=0p pd=0u as=0p ps=0u w=0u l=0u
X20 vs buffer_0/net1.t0 buffer_0/net1.t1 vs sky130_fd_pr__nfet_01v8 ad=0p pd=0u as=0p ps=0u w=0u l=0u
X21 vs buffer_0/net1.t26 out vs sky130_fd_pr__nfet_01v8 ad=0p pd=0u as=0p ps=0u w=0u l=0u
X22 out buffer_0/net1.t23 vs vs sky130_fd_pr__nfet_01v8 ad=0p pd=0u as=0p ps=0u w=0u l=0u
X23 buffer_0/net1.t9 buffer_0/net1.t8 vs vs sky130_fd_pr__nfet_01v8 ad=0p pd=0u as=0p ps=0u w=0u l=0u
X24 out buffer_0/net1.t27 vs vs sky130_fd_pr__nfet_01v8 ad=0p pd=0u as=0p ps=0u w=0u l=0u
X25 buffer_0/net4 out.t3 buffer_0/net2 vs sky130_fd_pr__nfet_01v8 ad=0p pd=0u as=0p ps=0u w=0u l=0u
X26 buffer_0/net2 out.t1 buffer_0/net4 vs sky130_fd_pr__nfet_01v8 ad=0p pd=0u as=0p ps=0u w=0u l=0u
X27 buffer_0/net1.t5 buffer_0/net1.t4 vs vs sky130_fd_pr__nfet_01v8 ad=0p pd=0u as=0p ps=0u w=0u l=0u
X28 vs buffer_0/net1.t2 buffer_0/net1.t3 vs sky130_fd_pr__nfet_01v8 ad=0p pd=0u as=0p ps=0u w=0u l=0u
X29 vd ib.t2 ib.t3 vd sky130_fd_pr__pfet_01v8 ad=0p pd=0u as=0p ps=0u w=0u l=0u
X30 vs buffer_0/net1.t29 out vs sky130_fd_pr__nfet_01v8 ad=0p pd=0u as=0p ps=0u w=0u l=0u
X31 vd ib.t5 ota_0/out vd sky130_fd_pr__pfet_01v8 ad=0p pd=0u as=0p ps=0u w=0u l=0u
X32 ota_0/out ib.t8 vd vd sky130_fd_pr__pfet_01v8 ad=0p pd=0u as=0p ps=0u w=0u l=0u
X33 vs buffer_0/net1.t6 buffer_0/net1.t7 vs sky130_fd_pr__nfet_01v8 ad=0p pd=0u as=0p ps=0u w=0u l=0u
X34 buffer_0/net4 ib.t9 vs vs sky130_fd_pr__nfet_01v8 ad=0p pd=0u as=0p ps=0u w=0u l=0u
X35 vd ib.t7 ota_0/out vd sky130_fd_pr__pfet_01v8 ad=0p pd=0u as=0p ps=0u w=0u l=0u
X36 vs buffer_0/net1.t10 buffer_0/net1.t11 vs sky130_fd_pr__nfet_01v8 ad=0p pd=0u as=0p ps=0u w=0u l=0u
X37 vs buffer_0/net1.t25 out vs sky130_fd_pr__nfet_01v8 ad=0p pd=0u as=0p ps=0u w=0u l=0u
X38 buffer_0/net4 out.t5 buffer_0/net2 vs sky130_fd_pr__nfet_01v8 ad=0p pd=0u as=0p ps=0u w=0u l=0u
X39 out buffer_0/net1.t28 vs vs sky130_fd_pr__nfet_01v8 ad=0p pd=0u as=0p ps=0u w=0u l=0u
R0 in1 in1.t0 88.243
R1 in2 in2.t0 88.786
R2 vs.n0 vs.n4 362.164
R3 vs.n0 vs.n2 362.164
R4 vs.n30 vs.n25 181.834
R5 vs.n14 vs.n9 181.834
R6 vs.n18 vs.n17 108.422
R7 vs.n31 vs.n30 108.422
R8 vs.n0 vs.n6 108.422
R9 vs.n15 vs.n14 108.422
R10 vs.n34 vs.n5 5.045
R11 vs.n5 vs 0.812
R12 vs vs 0.431
R13 vs.n34 vs.n33 0.202
R14 vs vs.n34 0.182
R15 vs.n19 vs.n16 0.15
R16 vs.n32 vs.n23 0.062
R17 vs.n20 vs.n19 0.057
R18 vs.n16 vs.n7 0.055
R19 vs.n25 vs.n24 0.046
R20 vs.n9 vs.n8 0.046
R21 vs.n30 vs.n29 0.042
R22 vs.n14 vs.n13 0.042
R23 vs.n28 vs.n27 0.035
R24 vs.n12 vs.n11 0.035
R25 vs.n27 vs.n26 0.025
R26 vs.n11 vs.n10 0.025
R27 vs.n29 vs.n28 0.025
R28 vs.n13 vs.n12 0.025
R29 vs.n16 vs.n15 0.017
R30 vs.n19 vs.n18 0.017
R31 vs.n32 vs.n31 0.017
R32 vs.n4 vs.n3 0.013
R33 vs.n2 vs.n1 0.013
R34 vs.n7 vs.n0 0.007
R35 vs vs 0.005
R36 vs.n23 vs.n20 0.004
R37 vs.n33 vs.n32 0.003
R38 vs.n5 vs 0.002
R39 vs.n22 vs.n21 0.001
R40 vs.n23 vs.n22 0.001
R41 ib.n5 ib.t6 196.205
R42 ib.n6 ib.t5 196.185
R43 ib.n7 ib.t8 196.183
R44 ib.n8 ib.t7 196.181
R45 ib.n4 ib.t2 160.591
R46 ib.t2 ib.n3 160.08
R47 ib.n4 ib.t4 160.055
R48 ib.n0 ib.t9 24.837
R49 ib.n0 ib.t0 24.107
R50 ib.n1 ib.t1 17.747
R51 ib.n3 ib.t3 5.789
R52 ib.n2 ib.n1 4.041
R53 ib ib.n8 3.3
R54 ib.n5 ib.n4 1.125
R55 ib.n3 ib 0.407
R56 ib.n1 ib.n0 0.387
R57 ib.n6 ib.n5 0.175
R58 ib.n8 ib.n7 0.168
R59 ib.n7 ib.n6 0.162
R60 ib.n2 ib 0.113
R61 ib ib.n2 0.078
R62 vd.n74 vd.n73 5396.47
R63 vd.n63 vd.n62 3501.18
R64 vd.n84 vd.n83 3501.18
R65 vd.n62 vd.n59 909.81
R66 vd.n83 vd.n80 909.81
R67 vd.n65 vd.n64 722.167
R68 vd.n86 vd.n85 722.167
R69 vd.n71 vd.n70 575.623
R70 vd.n75 vd.n70 575.623
R71 vd.n74 vd.n69 569.784
R72 vd.n72 vd.n71 515.374
R73 vd.n53 vd.n52 379.482
R74 vd.n40 vd.n34 379.482
R75 vd.n61 vd.n60 373.458
R76 vd.n65 vd.n60 373.458
R77 vd.n82 vd.n81 373.458
R78 vd.n86 vd.n81 373.458
R79 vd.n69 vd.n68 326.776
R80 vd.n54 vd.n53 297.411
R81 vd.n41 vd.n40 297.411
R82 vd.n59 vd.n58 270.305
R83 vd.n80 vd.n79 270.305
R84 vd.n76 vd.n75 251.205
R85 vd.n71 vd.n68 248.846
R86 vd.n19 vd.n16 131.387
R87 vd.n4 vd.n1 131.387
R88 vd.n24 vd.n21 131.011
R89 vd.n9 vd.n6 131.011
R90 vd.n66 vd.n65 105.107
R91 vd.n87 vd.n86 105.107
R92 vd.n61 vd.n58 103.152
R93 vd.n82 vd.n79 103.152
R94 vd.n29 vd.n24 54.211
R95 vd.n14 vd.n9 54.211
R96 vd.n29 vd.n19 53.835
R97 vd.n14 vd.n4 53.835
R98 vd.n57 vd.n14 8.271
R99 vd.n57 vd.n29 7.938
R100 vd.n57 vd.n56 4.028
R101 vd.n91 vd.n90 1.897
R102 vd.n77 vd.n76 1.606
R103 vd.n67 vd.n66 1.199
R104 vd.n88 vd.n87 1.199
R105 vd.n91 vd.n57 1.058
R106 vd vd.n89 1.008
R107 vd.n78 vd.n77 0.975
R108 vd vd.n88 0.594
R109 vd.n77 vd.n68 0.389
R110 vd.n67 vd.n58 0.389
R111 vd.n88 vd.n79 0.334
R112 vd.n55 vd.n45 0.296
R113 vd.n89 vd.n78 0.273
R114 vd.n42 vd.n32 0.228
R115 vd.n56 vd.n55 0.18
R116 vd.n89 vd 0.173
R117 vd.n56 vd.n42 0.167
R118 vd.n19 vd.n18 0.161
R119 vd.n24 vd.n23 0.161
R120 vd.n4 vd.n3 0.161
R121 vd.n9 vd.n8 0.161
R122 vd.n23 vd.n22 0.139
R123 vd.n8 vd.n7 0.139
R124 vd.n18 vd.n17 0.139
R125 vd.n3 vd.n2 0.139
R126 vd.n90 vd 0.071
R127 vd.n78 vd.n67 0.054
R128 vd vd.n91 0.044
R129 vd.n90 vd 0.034
R130 vd.n42 vd.n41 0.017